@<TRIPOS>MOLECULE
CEP001
26 28 1 0 0 
SMALL
USER_CHARGES


@<TRIPOS>ATOM
  1 H       -1.4240    -2.9670    -0.0800 H     1 <1>   0.1500 
  2 C       -0.9170    -2.0070    -0.1210 C.ar  1 <1>  -0.1500 
  3 C        0.4650    -2.0150    -0.0410 C.ar  1 <1>   0.0820 
  4 C        1.2040    -0.8600    -0.0460 C.ar  1 <1>   0.0820 
  5 C        0.6030     0.3690    -0.1370 C.ar  1 <1>  -0.1500 
  6 H        1.1980     1.2760    -0.1570 H     1 <1>   0.1500 
  7 C       -0.8030     0.3900    -0.2210 C.ar  1 <1>   0.1330 
  8 N       -1.3680     1.7040    -0.4100 N.pl3 1 <1>   0.9070 
  9 O       -1.4540     2.4260     0.5920 O.2   1 <1>  -0.5200 
 10 O       -1.7140     2.0110    -1.5570 O.2   1 <1>  -0.5200 
 11 C       -1.6110    -0.7820    -0.2100 C.ar  1 <1>   0.1170 
 12 N       -3.0410    -0.8040    -0.2390 N.am  1 <1>  -0.4770 
 13 C       -3.8390    -1.8940    -0.5890 C.2   1 <1>   0.7800 
 14 O       -3.4910    -2.9760    -1.0310 O.2   1 <1>  -0.5700 
 15 O       -5.1630    -1.5870    -0.3980 O.3   1 <1>  -0.4300 
 16 C       -5.2280    -0.3640     0.3300 C.3   1 <1>   0.2800 
 17 H       -6.0700     0.2410    -0.0170 H     1 <1>   0.0000 
 18 H       -5.3720    -0.6000     1.3900 H     1 <1>   0.0000 
 19 C       -3.9000     0.2990     0.0690 C.3   1 <1>   0.3000 
 20 H       -3.9770     0.9470    -0.8090 H     1 <1>   0.0000 
 21 H       -3.5690     0.8620     0.9450 H     1 <1>   0.0000 
 22 O        2.5380    -1.0930     0.0420 O.3   1 <1>  -0.3630 
 23 C        2.5610    -2.5360     0.0990 C.3   1 <1>   0.5600 
 24 H        3.1390    -2.9110    -0.7530 H     1 <1>   0.0000 
 25 H        3.0580    -2.8420     1.0260 H     1 <1>   0.0000 
 26 O        1.2450    -3.1250     0.0620 O.3   1 <1>  -0.3630 
@<TRIPOS>BOND
  1   1   2  1   
  2   2   3  ar  
  3   2  11  ar  
  4   3   4  ar  
  5   3  26  1   
  6   4   5  ar  
  7   4  22  1   
  8   5   6  1   
  9   5   7  ar  
 10   7   8  1   
 11   7  11  ar  
 12   8   9  2   
 13   8  10  2   
 14  11  12  1   
 15  12  13  am  
 16  12  19  1   
 17  13  14  2   
 18  13  15  1   
 19  15  16  1   
 20  16  17  1   
 21  16  18  1   
 22  16  19  1   
 23  19  20  1   
 24  19  21  1   
 25  22  23  1   
 26  23  24  1   
 27  23  25  1   
 28  23  26  1   
@<TRIPOS>SUBSTRUCTURE
  1 ****  11 GROUP 4 **** **** 0

# MOE 2022.02 (io_trps.svl 2020.11)

@<TRIPOS>MOLECULE
CEP002
41 43 1 0 0 
SMALL
USER_CHARGES


@<TRIPOS>ATOM
  1 H       14.1890     4.3840    -0.2520 H     1 <1>   0.5000 
  2 O       13.4600     3.7310    -0.3050 O.3   1 <1>  -0.6500 
  3 C       12.3520     4.4590    -0.0570 C.2   1 <1>   0.6590 
  4 O       12.4310     5.6540     0.1590 O.2   1 <1>  -0.5700 
  5 C       11.1110     3.6100    -0.0990 C.3   1 <1>   0.0610 
  6 H       11.2230     2.8020     0.6310 H     1 <1>   0.0000 
  7 H       11.0290     3.1780    -1.1020 H     1 <1>   0.0000 
  8 C        9.8570     4.4210     0.2190 C.3   1 <1>   0.0000 
  9 H        9.7650     5.2580    -0.4850 H     1 <1>   0.0000 
 10 H        9.9510     4.8680     1.2170 H     1 <1>   0.0000 
 11 C        8.6030     3.5490     0.1520 C.3   1 <1>   0.0610 
 12 H        8.6850     2.7480     0.8950 H     1 <1>   0.0000 
 13 H        8.5330     3.1040    -0.8480 H     1 <1>   0.0000 
 14 C        7.3250     4.3360     0.4370 C.2   1 <1>   0.5690 
 15 O        7.4100     5.4500     0.9540 O.2   1 <1>  -0.5700 
 16 N        6.1250     3.6980     0.0980 N.am  1 <1>  -0.4770 
 17 C        4.8500     4.3950     0.0200 C.ar  1 <1>   0.1170 
 18 C        4.7860     5.7980    -0.0550 C.ar  1 <1>  -0.1500 
 19 H        5.6800     6.4130    -0.0370 H     1 <1>   0.1500 
 20 C        3.5690     6.4650    -0.2020 C.ar  1 <1>  -0.1500 
 21 H        3.5520     7.5500    -0.2590 H     1 <1>   0.1500 
 22 C        2.3890     5.7420    -0.2880 C.ar  1 <1>  -0.1500 
 23 H        1.4400     6.2560    -0.4080 H     1 <1>   0.1500 
 24 C        2.4260     4.3500    -0.2180 C.ar  1 <1>  -0.1500 
 25 H        1.4840     3.8140    -0.2800 H     1 <1>   0.1500 
 26 C        3.6330     3.6480    -0.0520 C.ar  1 <1>   0.1000 
 27 N        3.6310     2.2750     0.0530 N.pl3 1 <1>  -0.8380 
 28 C        2.5260     1.3580    -0.1710 C.3   1 <1>   0.3690 
 29 H        2.2310     1.3720    -1.2260 H     1 <1>   0.0000 
 30 H        1.6550     1.5860     0.4520 H     1 <1>   0.0000 
 31 C        3.1100    -0.0060     0.2060 C.3   1 <1>   0.0000 
 32 H        2.9330    -0.2060     1.2700 H     1 <1>   0.0000 
 33 H        2.6700    -0.8230    -0.3720 H     1 <1>   0.0000 
 34 C        4.6050     0.1600    -0.0450 C.3   1 <1>   0.0000 
 35 H        5.2080    -0.5720     0.4990 H     1 <1>   0.0000 
 36 H        4.8150     0.0530    -1.1170 H     1 <1>   0.0000 
 37 C        4.8570     1.5920     0.4280 C.3   1 <1>   0.3690 
 38 H        4.9580     1.6160     1.5220 H     1 <1>   0.0000 
 39 C        6.0590     2.2580    -0.2250 C.3   1 <1>   0.3000 
 40 H        6.0140     2.1860    -1.3200 H     1 <1>   0.0000 
 41 H        6.9600     1.7320     0.0980 H     1 <1>   0.0000 
@<TRIPOS>BOND
  1   1   2  1   
  2   2   3  1   
  3   3   4  2   
  4   3   5  1   
  5   5   6  1   
  6   5   7  1   
  7   5   8  1   
  8   8   9  1   
  9   8  10  1   
 10   8  11  1   
 11  11  12  1   
 12  11  13  1   
 13  11  14  1   
 14  14  15  2   
 15  14  16  am  
 16  16  17  1   
 17  16  39  1   
 18  17  18  ar  
 19  17  26  ar  
 20  18  19  1   
 21  18  20  ar  
 22  20  21  1   
 23  20  22  ar  
 24  22  23  1   
 25  22  24  ar  
 26  24  25  1   
 27  24  26  ar  
 28  26  27  1   
 29  27  28  1   
 30  27  37  1   
 31  28  29  1   
 32  28  30  1   
 33  28  31  1   
 34  31  32  1   
 35  31  33  1   
 36  31  34  1   
 37  34  35  1   
 38  34  36  1   
 39  34  37  1   
 40  37  38  1   
 41  37  39  1   
 42  39  40  1   
 43  39  41  1   
@<TRIPOS>SUBSTRUCTURE
  1 ****  16 GROUP 4 **** **** 0

# MOE 2022.02 (io_trps.svl 2020.11)

@<TRIPOS>MOLECULE
CEP003
31 32 1 0 0 
SMALL
USER_CHARGES


@<TRIPOS>ATOM
  1 H        0.4660    -4.0690    -0.4070 H     1 <1>   0.4000 
  2 O        0.2780    -3.6280     0.4450 O.3   1 <1>  -0.6800 
  3 C        0.3930    -2.2430     0.1060 C.3   1 <1>   0.5500 
  4 C       -0.8290    -1.4150     0.5790 C.3   1 <1>   1.0200 
  5 F       -1.9880    -1.8910     0.0650 F     1 <1>  -0.3400 
  6 F       -0.7240    -0.1220     0.1800 F     1 <1>  -0.3400 
  7 F       -0.9480    -1.4100     1.9270 F     1 <1>  -0.3400 
  8 N        0.6750    -2.1800    -1.3400 N.pl3 1 <1>  -0.5280 
  9 H        0.2560    -1.3610    -1.7490 H     1 <1>   0.3110 
 10 N        2.0130    -2.1900    -1.5910 N.2   1 <1>  -0.5030 
 11 C        2.6170    -1.9890    -0.4570 C.2   1 <1>   0.3750 
 12 C        4.0890    -1.9750    -0.2700 C.2   1 <1>   0.0290 
 13 C        4.8760    -2.9310    -0.8140 C.2   1 <1>  -0.1380 
 14 C        4.3990    -4.1160    -1.6110 C.3   1 <1>   0.1380 
 15 H        4.9540    -5.0210    -1.3330 H     1 <1>   0.0000 
 16 H        3.3460    -4.3520    -1.4400 H     1 <1>   0.0000 
 17 H        4.5490    -3.9390    -2.6810 H     1 <1>   0.0000 
 18 C        6.3220    -2.8740    -0.6260 C.2   1 <1>  -0.1500 
 19 H        6.9340    -3.6360    -1.1030 H     1 <1>   0.1500 
 20 C        6.8900    -1.9090     0.1110 C.2   1 <1>  -0.0290 
 21 C        8.3650    -1.7980     0.3440 C.3   1 <1>   0.1380 
 22 H        8.9200    -2.5960    -0.1610 H     1 <1>   0.0000 
 23 H        8.5890    -1.8610     1.4140 H     1 <1>   0.0000 
 24 H        8.7400    -0.8400    -0.0330 H     1 <1>   0.0000 
 25 N        6.0910    -0.9560     0.6920 N.am  1 <1>  -0.5390 
 26 H        6.5030    -0.2220     1.2560 H     1 <1>   0.3700 
 27 C        4.7250    -0.9080     0.5660 C.2   1 <1>   0.6160 
 28 O        4.0680    -0.0290     1.1150 O.2   1 <1>  -0.5700 
 29 C        1.6930    -1.7200     0.7010 C.3   1 <1>   0.0610 
 30 H        2.0210    -2.2640     1.5910 H     1 <1>   0.0000 
 31 H        1.6610    -0.6420     0.8820 H     1 <1>   0.0000 
@<TRIPOS>BOND
  1   1   2  1   
  2   2   3  1   
  3   3   4  1   
  4   3   8  1   
  5   3  29  1   
  6   4   5  1   
  7   4   6  1   
  8   4   7  1   
  9   8   9  1   
 10   8  10  1   
 11  10  11  2   
 12  11  12  1   
 13  11  29  1   
 14  12  13  2   
 15  12  27  1   
 16  13  14  1   
 17  13  18  1   
 18  14  15  1   
 19  14  16  1   
 20  14  17  1   
 21  18  19  1   
 22  18  20  2   
 23  20  21  1   
 24  20  25  1   
 25  21  22  1   
 26  21  23  1   
 27  21  24  1   
 28  25  26  1   
 29  25  27  am  
 30  27  28  2   
 31  29  30  1   
 32  29  31  1   
@<TRIPOS>SUBSTRUCTURE
  1 ****  11 GROUP 4 **** **** 0

# MOE 2022.02 (io_trps.svl 2020.11)

@<TRIPOS>MOLECULE
CEP004
27 28 1 0 0 
SMALL
USER_CHARGES


@<TRIPOS>ATOM
  1 H        2.8120     3.0000    -1.9400 H     1 <1>   0.0600 
  2 C        1.8290     2.9270    -1.4500 C.2   1 <1>   0.5700 
  3 O        0.9250     3.6730    -1.8040 O.2   1 <1>  -0.5700 
  4 N        1.7590     1.9120    -0.5010 N.am  1 <1>  -0.4770 
  5 C        2.8920     1.0930    -0.2100 C.ar  1 <1>   0.1170 
  6 C        4.1680     1.6950    -0.1930 C.ar  1 <1>  -0.1500 
  7 H        4.2800     2.7630    -0.3670 H     1 <1>   0.1500 
  8 C        5.3110     0.9580     0.1120 C.ar  1 <1>   0.1110 
  9 BR       7.0000     1.8070     0.1400 Br    1 <1>  -0.1110 
 10 C        5.2140    -0.3910     0.4090 C.ar  1 <1>  -0.1500 
 11 H        6.0980    -0.9760     0.6510 H     1 <1>   0.1500 
 12 C        3.9610    -1.0040     0.3960 C.ar  1 <1>  -0.1500 
 13 H        3.9160    -2.0680     0.6230 H     1 <1>   0.1500 
 14 C        2.7870    -0.2860     0.0850 C.ar  1 <1>   0.1170 
 15 N        1.6240    -1.0850     0.0520 N.am  1 <1>  -0.5470 
 16 H        1.7510    -2.0690     0.2680 H     1 <1>   0.3700 
 17 C        0.3140    -0.8500    -0.2200 C.2   1 <1>   0.5690 
 18 O       -0.4540    -1.8180    -0.1950 O.2   1 <1>  -0.5700 
 19 C       -0.2100     0.5090    -0.5790 C.3   1 <1>   0.0610 
 20 H       -1.2780     0.5090    -0.3280 H     1 <1>   0.0000 
 21 H       -0.1240     0.6420    -1.6640 H     1 <1>   0.0000 
 22 C        0.5090     1.5890     0.2000 C.3   1 <1>   0.3000 
 23 H        0.7890     1.2190     1.1970 H     1 <1>   0.0000 
 24 C       -0.4110     2.7810     0.4900 C.3   1 <1>   0.0000 
 25 H        0.1500     3.6170     0.9190 H     1 <1>   0.0000 
 26 H       -0.9340     3.1310    -0.4050 H     1 <1>   0.0000 
 27 H       -1.1830     2.4910     1.2130 H     1 <1>   0.0000 
@<TRIPOS>BOND
  1   1   2  1   
  2   2   3  2   
  3   2   4  am  
  4   4   5  1   
  5   4  22  1   
  6   5   6  ar  
  7   5  14  ar  
  8   6   7  1   
  9   6   8  ar  
 10   8   9  1   
 11   8  10  ar  
 12  10  11  1   
 13  10  12  ar  
 14  12  13  1   
 15  12  14  ar  
 16  14  15  1   
 17  15  16  1   
 18  15  17  am  
 19  17  18  2   
 20  17  19  1   
 21  19  20  1   
 22  19  21  1   
 23  19  22  1   
 24  22  23  1   
 25  22  24  1   
 26  24  25  1   
 27  24  26  1   
 28  24  27  1   
@<TRIPOS>SUBSTRUCTURE
  1 ****   5 GROUP 4 **** **** 0

# MOE 2022.02 (io_trps.svl 2020.11)

@<TRIPOS>MOLECULE
CEP005
38 39 1 0 0 
SMALL
USER_CHARGES


@<TRIPOS>ATOM
  1 H       -2.7080    -5.3180     0.0880 H     1 <1>   0.1500 
  2 C       -3.3310    -4.4300    -0.0170 C.ar  1 <1>  -0.1500 
  3 C       -2.7000    -3.2190    -0.3380 C.ar  1 <1>   0.1790 
  4 C       -3.5050    -2.0740    -0.4980 C.ar  1 <1>   0.1170 
  5 C       -4.9010    -2.1860    -0.3920 C.ar  1 <1>  -0.1500 
  6 H       -5.5220    -1.3020    -0.5340 H     1 <1>   0.1500 
  7 C       -5.5210    -3.4040    -0.0720 C.ar  1 <1>  -0.1440 
  8 C       -7.0190    -3.4590     0.0580 C.3   1 <1>   0.1440 
  9 H       -7.4300    -4.2590    -0.5660 H     1 <1>   0.0000 
 10 H       -7.4850    -2.5230    -0.2670 H     1 <1>   0.0000 
 11 H       -7.3000    -3.6300     1.1020 H     1 <1>   0.0000 
 12 C       -4.7230    -4.5390     0.1400 C.ar  1 <1>  -0.1440 
 13 C       -5.3210    -5.8770     0.4770 C.3   1 <1>   0.1440 
 14 H       -6.0080    -5.7900     1.3250 H     1 <1>   0.0000 
 15 H       -4.5490    -6.6000     0.7610 H     1 <1>   0.0000 
 16 H       -5.8580    -6.2780    -0.3880 H     1 <1>   0.0000 
 17 N       -3.0180    -0.7840    -0.7880 N.am  1 <1>  -0.5470 
 18 H       -3.6530    -0.1160    -1.2070 H     1 <1>   0.3700 
 19 C       -1.7700    -0.2870    -0.5540 C.2   1 <1>   0.5690 
 20 O       -1.4550     0.8260    -0.9740 O.2   1 <1>  -0.5700 
 21 C       -0.8520    -1.0940     0.3100 C.3   1 <1>   0.1220 
 22 H        0.0470    -0.5000     0.5060 H     1 <1>   0.0000 
 23 H       -1.3260    -1.2940     1.2770 H     1 <1>   0.0000 
 24 C       -0.4780    -2.3830    -0.3500 C.2   1 <1>   0.3280 
 25 C        0.9650    -2.5930    -0.7400 C.3   1 <1>   0.1220 
 26 H        1.2820    -1.7370    -1.3450 H     1 <1>   0.0000 
 27 H        1.0430    -3.5050    -1.3420 H     1 <1>   0.0000 
 28 C        1.8860    -2.7190     0.4390 C.2   1 <1>   0.6590 
 29 O        1.5590    -2.5770     1.6090 O.2   1 <1>  -0.5700 
 30 O        3.1510    -2.9850     0.0060 O.3   1 <1>  -0.4300 
 31 C        4.1220    -3.1080     1.0540 C.3   1 <1>   0.2800 
 32 H        3.8530    -3.9450     1.7080 H     1 <1>   0.0000 
 33 H        4.1580    -2.1810     1.6360 H     1 <1>   0.0000 
 34 C        5.4740    -3.3660     0.4170 C.3   1 <1>   0.0000 
 35 H        5.4490    -4.2830    -0.1810 H     1 <1>   0.0000 
 36 H        6.2520    -3.4620     1.1790 H     1 <1>   0.0000 
 37 H        5.7410    -2.5500    -0.2630 H     1 <1>   0.0000 
 38 N       -1.3250    -3.3230    -0.6240 N.2   1 <1>  -0.6290 
@<TRIPOS>BOND
  1   1   2  1   
  2   2   3  ar  
  3   2  12  ar  
  4   3   4  ar  
  5   3  38  1   
  6   4   5  ar  
  7   4  17  1   
  8   5   6  1   
  9   5   7  ar  
 10   7   8  1   
 11   7  12  ar  
 12   8   9  1   
 13   8  10  1   
 14   8  11  1   
 15  12  13  1   
 16  13  14  1   
 17  13  15  1   
 18  13  16  1   
 19  17  18  1   
 20  17  19  am  
 21  19  20  2   
 22  19  21  1   
 23  21  22  1   
 24  21  23  1   
 25  21  24  1   
 26  24  25  1   
 27  24  38  2   
 28  25  26  1   
 29  25  27  1   
 30  25  28  1   
 31  28  29  2   
 32  28  30  1   
 33  30  31  1   
 34  31  32  1   
 35  31  33  1   
 36  31  34  1   
 37  34  35  1   
 38  34  36  1   
 39  34  37  1   
@<TRIPOS>SUBSTRUCTURE
  1 ****  38 GROUP 4 **** **** 0

# MOE 2022.02 (io_trps.svl 2020.11)

@<TRIPOS>MOLECULE
CEP006
35 38 1 0 0 
SMALL
USER_CHARGES


@<TRIPOS>ATOM
  1 H        7.7270    -0.1670    -0.5770 H     1 <1>   0.1500 
  2 C        7.0320     0.6500    -0.3930 C.ar  1 <1>  -0.1500 
  3 C        7.2390     1.4970     0.7160 C.ar  1 <1>  -0.1500 
  4 H        8.0910     1.3250     1.3690 H     1 <1>   0.1500 
  5 C        6.3720     2.5600     0.9760 C.ar  1 <1>  -0.1500 
  6 H        6.5350     3.2350     1.8090 H     1 <1>   0.1500 
  7 C        5.3050     2.7070     0.1220 C.ar  1 <1>   0.1170 
  8 C        5.1020     1.8960    -1.0030 C.ar  1 <1>   0.1000 
  9 C        5.9580     0.8540    -1.2710 C.ar  1 <1>  -0.1500 
 10 H        5.8180     0.2120    -2.1320 H     1 <1>   0.1500 
 11 N        3.9900     2.3250    -1.7360 N.pl3 1 <1>  -0.8690 
 12 H        3.6790     1.9730    -2.6230 H     1 <1>   0.4000 
 13 C        3.3070     3.3450    -0.9230 C.3   1 <1>   0.8500 
 14 C        2.0910     2.7810    -0.1760 C.2   1 <1>  -0.1810 
 15 C        0.9570     3.4010     0.4530 C.2   1 <1>   0.1080 
 16 C        0.5790     4.8320     0.6040 C.3   1 <1>   0.1810 
 17 H        0.5100     5.3260    -0.3680 H     1 <1>   0.0000 
 18 H        1.3020     5.3550     1.2350 H     1 <1>   0.0000 
 19 H       -0.4010     4.9370     1.0840 H     1 <1>   0.0000 
 20 N        0.1260     2.4970     0.9890 N.2   1 <1>  -0.7070 
 21 N        0.7060     1.3180     0.7480 N.pl3 1 <1>   0.3140 
 22 C        0.0840     0.1070     1.2240 C.3   1 <1>   0.2560 
 23 H        0.0180     0.1600     2.3140 H     1 <1>   0.0000 
 24 H        0.6890    -0.7540     0.9290 H     1 <1>   0.0000 
 25 H       -0.9120     0.0320     0.7810 H     1 <1>   0.0000 
 26 C        1.8630     1.4280     0.0500 C.2   1 <1>  -0.3020 
 27 H        2.4450     0.5570    -0.2210 H     1 <1>   0.1500 
 28 N        4.3450     3.6920     0.0290 N.am  1 <1>  -0.4770 
 29 C        4.2710     4.9510     0.5130 C.2   1 <1>   0.6300 
 30 O        4.8500     5.5100     1.4160 O.2   1 <1>  -0.5700 
 31 C        3.3670     5.6330    -0.5310 C.2   1 <1>   0.5090 
 32 O        3.0060     6.7940    -0.4750 O.2   1 <1>  -0.5700 
 33 C        3.0560     4.6590    -1.6490 C.3   1 <1>   0.0610 
 34 H        3.7700     4.8350    -2.4600 H     1 <1>   0.0000 
 35 H        2.0360     4.7710    -2.0200 H     1 <1>   0.0000 
@<TRIPOS>BOND
  1   1   2  1   
  2   2   3  ar  
  3   2   9  ar  
  4   3   4  1   
  5   3   5  ar  
  6   5   6  1   
  7   5   7  ar  
  8   7   8  ar  
  9   7  28  1   
 10   8   9  ar  
 11   8  11  1   
 12   9  10  1   
 13  11  12  1   
 14  11  13  1   
 15  13  14  1   
 16  13  28  1   
 17  13  33  1   
 18  14  15  1   
 19  14  26  2   
 20  15  16  1   
 21  15  20  2   
 22  16  17  1   
 23  16  18  1   
 24  16  19  1   
 25  20  21  1   
 26  21  22  1   
 27  21  26  1   
 28  22  23  1   
 29  22  24  1   
 30  22  25  1   
 31  26  27  1   
 32  28  29  am  
 33  29  30  2   
 34  29  31  1   
 35  31  32  2   
 36  31  33  1   
 37  33  34  1   
 38  33  35  1   
@<TRIPOS>SUBSTRUCTURE
  1 ****  13 GROUP 4 **** **** 0

# MOE 2022.02 (io_trps.svl 2020.11)

@<TRIPOS>MOLECULE
CEP007
35 38 1 0 0 
SMALL
USER_CHARGES


@<TRIPOS>ATOM
  1 H       -0.7630     3.1540    -0.3350 H     1 <1>   0.1500 
  2 C       -1.3500     2.2400    -0.2530 C.ar  1 <1>  -0.1500 
  3 C       -0.7180     0.9910    -0.2940 C.ar  1 <1>   0.0540 
  4 C        0.7300     0.9000    -0.4430 C.2   1 <1>   0.4620 
  5 N        1.4200    -0.2510    -0.5100 N.2   1 <1>  -0.4100 
  6 O        2.7450     0.1690    -0.6440 O.3   1 <1>  -0.0190 
  7 C        2.7140     1.5280    -0.6340 C.2   1 <1>   0.3930 
  8 C        3.9340     2.3660    -0.7760 C.3   1 <1>  -0.0150 
  9 H        4.2500     2.5090    -1.8030 H     1 <1>   0.1000 
 10 C        5.0130     2.2800     0.2740 C.3   1 <1>  -0.2000 
 11 H        4.8630     1.6280     1.1280 H     1 <1>   0.1000 
 12 H        6.0440     2.3460    -0.0530 H     1 <1>   0.1000 
 13 C        4.1630     3.5130     0.1770 C.3   1 <1>  -0.2000 
 14 H        3.4310     3.6920     0.9580 H     1 <1>   0.1000 
 15 H        4.6130     4.4160    -0.2190 H     1 <1>   0.1000 
 16 N        1.5100     2.0330    -0.5290 N.2   1 <1>  -0.5650 
 17 C       -1.5080    -0.1600    -0.1870 C.ar  1 <1>  -0.1500 
 18 H       -1.0500    -1.1470    -0.2140 H     1 <1>   0.1500 
 19 C       -2.8980    -0.0760    -0.0400 C.ar  1 <1>   0.1790 
 20 N       -3.6060    -1.2830     0.0630 N.2   1 <1>  -0.6290 
 21 C       -4.8950    -1.2290     0.2000 C.2   1 <1>   0.3890 
 22 C       -5.6870    -2.5000     0.3160 C.3   1 <1>   0.0610 
 23 H       -6.4140    -2.5560    -0.4990 H     1 <1>   0.0000 
 24 H       -6.2120    -2.5190     1.2750 H     1 <1>   0.0000 
 25 H       -5.0260    -3.3690     0.2580 H     1 <1>   0.0000 
 26 C       -5.6820     0.0710     0.2530 C.2   1 <1>   0.6300 
 27 O       -6.8990     0.0090     0.3840 O.2   1 <1>  -0.5700 
 28 N       -4.9390     1.2420     0.1490 N.am  1 <1>  -0.4770 
 29 C       -5.6290     2.5170     0.1930 C.3   1 <1>   0.3000 
 30 H       -5.4540     3.0590    -0.7420 H     1 <1>   0.0000 
 31 H       -6.7090     2.3890     0.3120 H     1 <1>   0.0000 
 32 H       -5.2630     3.1000     1.0440 H     1 <1>   0.0000 
 33 C       -3.5250     1.1830     0.0000 C.ar  1 <1>   0.1170 
 34 C       -2.7380     2.3370    -0.1080 C.ar  1 <1>  -0.1500 
 35 H       -3.1740     3.3310    -0.0830 H     1 <1>   0.1500 
@<TRIPOS>BOND
  1   1   2  1   
  2   2   3  ar  
  3   2  34  ar  
  4   3   4  1   
  5   3  17  ar  
  6   4   5  2   
  7   4  16  1   
  8   5   6  1   
  9   6   7  1   
 10   7   8  1   
 11   7  16  2   
 12   8   9  1   
 13   8  10  1   
 14   8  13  1   
 15  10  11  1   
 16  10  12  1   
 17  10  13  1   
 18  13  14  1   
 19  13  15  1   
 20  17  18  1   
 21  17  19  ar  
 22  19  20  1   
 23  19  33  ar  
 24  20  21  2   
 25  21  22  1   
 26  21  26  1   
 27  22  23  1   
 28  22  24  1   
 29  22  25  1   
 30  26  27  2   
 31  26  28  am  
 32  28  29  1   
 33  28  33  1   
 34  29  30  1   
 35  29  31  1   
 36  29  32  1   
 37  33  34  ar  
 38  34  35  1   
@<TRIPOS>SUBSTRUCTURE
  1 ****   3 GROUP 4 **** **** 0

# MOE 2022.02 (io_trps.svl 2020.11)

@<TRIPOS>MOLECULE
CEP008
37 39 1 0 0 
SMALL
USER_CHARGES


@<TRIPOS>ATOM
  1 H        1.0820    -1.3960    -1.2480 H     1 <1>   0.1500 
  2 C        1.5510    -0.4620    -0.9550 C.ar  1 <1>  -0.1500 
  3 C        2.9510    -0.4270    -1.0190 C.ar  1 <1>  -0.1500 
  4 H        3.4950    -1.3140    -1.3380 H     1 <1>   0.1500 
  5 C        3.6240     0.7420    -0.6830 C.ar  1 <1>  -0.0090 
  6 S        5.3910     0.8190    -0.7860 S.o2  1 <1>   1.4470 
  7 O        5.8790    -0.3800    -1.4300 O.2   1 <1>  -0.6500 
  8 O        5.7410     2.1390    -1.2630 O.2   1 <1>  -0.6500 
  9 N        5.8390     0.7680     0.8320 N.am  1 <1>  -0.9140 
 10 H        6.5110     1.4940     1.0790 H     1 <1>   0.4200 
 11 C        5.9450    -0.5280     1.4880 C.3   1 <1>   0.3560 
 12 H        5.0950    -1.1720     1.2490 H     1 <1>   0.0000 
 13 H        6.8780    -1.0210     1.2030 H     1 <1>   0.0000 
 14 H        5.9570    -0.3780     2.5720 H     1 <1>   0.0000 
 15 C        2.9110     1.8780    -0.3140 C.ar  1 <1>  -0.1500 
 16 H        3.4410     2.7970    -0.0780 H     1 <1>   0.1500 
 17 C        1.5130     1.8260    -0.2640 C.ar  1 <1>   0.1170 
 18 C        0.7870     0.6520    -0.5630 C.ar  1 <1>   0.1000 
 19 N       -0.6010     0.6260    -0.4820 N.pl3 1 <1>  -0.8380 
 20 C       -1.3940    -0.5910    -0.6900 C.3   1 <1>   0.3690 
 21 H       -1.7980    -0.5770    -1.7090 H     1 <1>   0.0000 
 22 H       -0.8060    -1.5070    -0.5880 H     1 <1>   0.0000 
 23 C       -2.5300    -0.7110     0.3220 C.3   1 <1>   0.0000 
 24 H       -3.1580    -1.5730     0.0690 H     1 <1>   0.0000 
 25 H       -2.1120    -0.9020     1.3190 H     1 <1>   0.0000 
 26 C       -3.3780     0.5470     0.3650 C.3   1 <1>   0.0000 
 27 H       -4.1640     0.4420     1.1210 H     1 <1>   0.0000 
 28 H       -3.8750     0.7010    -0.6010 H     1 <1>   0.0000 
 29 C       -2.4980     1.7410     0.6960 C.3   1 <1>   0.0000 
 30 H       -3.1170     2.6470     0.7120 H     1 <1>   0.0000 
 31 H       -2.0930     1.6240     1.7100 H     1 <1>   0.0000 
 32 C       -1.3470     1.9010    -0.3070 C.3   1 <1>   0.4300 
 33 H       -1.7610     2.1680    -1.2890 H     1 <1>   0.0000 
 34 C       -0.5100     3.1100     0.1330 C.2   1 <1>   0.5690 
 35 O       -1.0170     4.1820     0.4730 O.2   1 <1>  -0.5700 
 36 N        0.8460     2.9980     0.0970 N.am  1 <1>  -0.5470 
 37 H        1.3620     3.8290     0.3510 H     1 <1>   0.3700 
@<TRIPOS>BOND
  1   1   2  1   
  2   2   3  ar  
  3   2  18  ar  
  4   3   4  1   
  5   3   5  ar  
  6   5   6  1   
  7   5  15  ar  
  8   6   7  2   
  9   6   8  2   
 10   6   9  am  
 11   9  10  1   
 12   9  11  1   
 13  11  12  1   
 14  11  13  1   
 15  11  14  1   
 16  15  16  1   
 17  15  17  ar  
 18  17  18  ar  
 19  17  36  1   
 20  18  19  1   
 21  19  20  1   
 22  19  32  1   
 23  20  21  1   
 24  20  22  1   
 25  20  23  1   
 26  23  24  1   
 27  23  25  1   
 28  23  26  1   
 29  26  27  1   
 30  26  28  1   
 31  26  29  1   
 32  29  30  1   
 33  29  31  1   
 34  29  32  1   
 35  32  33  1   
 36  32  34  1   
 37  34  35  2   
 38  34  36  am  
 39  36  37  1   
@<TRIPOS>SUBSTRUCTURE
  1 ****  17 GROUP 4 **** **** 0

# MOE 2022.02 (io_trps.svl 2020.11)

@<TRIPOS>MOLECULE
CEP009
40 41 1 0 0 
SMALL
USER_CHARGES


@<TRIPOS>ATOM
  1 H       -2.8430    -6.8040     0.9440 H     1 <1>   0.1500 
  2 C       -1.9380    -6.2120     0.8360 C.ar  1 <1>  -0.1500 
  3 C       -0.8620    -6.4230     1.6880 C.ar  1 <1>  -0.1500 
  4 H       -0.9170    -7.1840     2.4620 H     1 <1>   0.1500 
  5 C        0.3090    -5.6790     1.5260 C.ar  1 <1>  -0.1500 
  6 H        1.1490    -5.8950     2.1820 H     1 <1>   0.1500 
  7 C        0.4190    -4.6910     0.5310 C.ar  1 <1>   0.1170 
  8 C       -0.6960    -4.4550    -0.3010 C.ar  1 <1>   0.1170 
  9 C       -1.8500    -5.2430    -0.1620 C.ar  1 <1>  -0.1500 
 10 H       -2.7040    -5.0930    -0.8180 H     1 <1>   0.1500 
 11 N       -0.7200    -3.5210    -1.3500 N.am  1 <1>  -0.5470 
 12 H       -1.3170    -3.7040    -2.1470 H     1 <1>   0.3700 
 13 C       -0.0340    -2.3460    -1.4210 C.2   1 <1>   0.5690 
 14 O       -0.0090    -1.6890    -2.4590 O.2   1 <1>  -0.5700 
 15 C        0.5740    -1.8500    -0.1450 C.3   1 <1>   0.0610 
 16 H        0.8070    -0.7850    -0.2750 H     1 <1>   0.0000 
 17 H       -0.1720    -1.9040     0.6590 H     1 <1>   0.0000 
 18 C        1.8350    -2.6240     0.1920 C.3   1 <1>   0.3000 
 19 H        2.5650    -2.4260    -0.6040 H     1 <1>   0.0000 
 20 C        2.4000    -2.0530     1.5050 C.3   1 <1>   0.0000 
 21 H        3.3500    -2.5200     1.7810 H     1 <1>   0.0000 
 22 H        1.7050    -2.2200     2.3350 H     1 <1>   0.0000 
 23 H        2.5750    -0.9750     1.4190 H     1 <1>   0.0000 
 24 N        1.7000    -4.0860     0.3070 N.am  1 <1>  -0.4770 
 25 C        2.8330    -4.9110     0.2060 C.2   1 <1>   0.7800 
 26 O        2.8300    -6.1370     0.2740 O.2   1 <1>  -0.5700 
 27 O        3.9810    -4.2010    -0.0110 O.3   1 <1>  -0.4300 
 28 C        5.1610    -5.0030    -0.1660 C.3   1 <1>   0.2800 
 29 H        5.3210    -5.5980     0.7410 H     1 <1>   0.0000 
 30 H        5.0240    -5.6760    -1.0210 H     1 <1>   0.0000 
 31 C        6.3640    -4.0850    -0.4190 C.3   1 <1>   0.0000 
 32 H        6.1390    -3.4440    -1.2810 H     1 <1>   0.0000 
 33 C        7.6070    -4.9140    -0.7370 C.3   1 <1>   0.0000 
 34 H        7.4400    -5.5410    -1.6190 H     1 <1>   0.0000 
 35 H        7.8730    -5.5690     0.1000 H     1 <1>   0.0000 
 36 H        8.4640    -4.2650    -0.9470 H     1 <1>   0.0000 
 37 C        6.6280    -3.1700     0.7780 C.3   1 <1>   0.0000 
 38 H        7.4950    -2.5270     0.5910 H     1 <1>   0.0000 
 39 H        5.7710    -2.5180     0.9740 H     1 <1>   0.0000 
 40 H        6.8280    -3.7510     1.6850 H     1 <1>   0.0000 
@<TRIPOS>BOND
  1   1   2  1   
  2   2   3  ar  
  3   2   9  ar  
  4   3   4  1   
  5   3   5  ar  
  6   5   6  1   
  7   5   7  ar  
  8   7   8  ar  
  9   7  24  1   
 10   8   9  ar  
 11   8  11  1   
 12   9  10  1   
 13  11  12  1   
 14  11  13  am  
 15  13  14  2   
 16  13  15  1   
 17  15  16  1   
 18  15  17  1   
 19  15  18  1   
 20  18  19  1   
 21  18  20  1   
 22  18  24  1   
 23  20  21  1   
 24  20  22  1   
 25  20  23  1   
 26  24  25  am  
 27  25  26  2   
 28  25  27  1   
 29  27  28  1   
 30  28  29  1   
 31  28  30  1   
 32  28  31  1   
 33  31  32  1   
 34  31  33  1   
 35  31  37  1   
 36  33  34  1   
 37  33  35  1   
 38  33  36  1   
 39  37  38  1   
 40  37  39  1   
 41  37  40  1   
@<TRIPOS>SUBSTRUCTURE
  1 ****  24 GROUP 4 **** **** 0

# MOE 2022.02 (io_trps.svl 2020.11)

@<TRIPOS>MOLECULE
CEP010
35 37 1 0 0 
SMALL
USER_CHARGES


@<TRIPOS>ATOM
  1 H        7.0940     2.3160    -2.1590 H     1 <1>   0.4500 
  2 O        7.4040     1.5400    -1.6640 O.3   1 <1>  -0.5270 
  3 C        6.3350     0.8920    -1.0860 C.2   1 <1>   0.0770 
  4 C        5.1310     1.6760    -0.9310 C.2   1 <1>  -0.1500 
  5 H        5.0990     2.6990    -1.2880 H     1 <1>   0.1500 
  6 C        4.0680     1.1260    -0.3310 C.2   1 <1>  -0.0290 
  7 N        4.1120    -0.1810     0.1410 N.am  1 <1>  -0.2860 
  8 C        5.2280    -1.0030     0.0330 C.2   1 <1>   0.6160 
  9 O        5.3120    -2.1560     0.4510 O.2   1 <1>  -0.5700 
 10 C        6.4040    -0.3810    -0.6540 C.2   1 <1>   0.0290 
 11 C        7.6590    -1.1540    -0.8380 C.2   1 <1>   0.4950 
 12 O        8.1570    -1.3080    -1.9540 O.2   1 <1>  -0.5700 
 13 C        8.2870    -1.7650     0.3870 C.3   1 <1>   0.0610 
 14 H        8.0750    -2.8370     0.4090 H     1 <1>   0.0000 
 15 H        9.3670    -1.6000     0.3540 H     1 <1>   0.0000 
 16 H        7.9060    -1.2980     1.2990 H     1 <1>   0.0000 
 17 C        2.8800    -0.5270     0.7320 C.ar  1 <1>   0.1170 
 18 C        2.4860    -1.7170     1.3190 C.ar  1 <1>  -0.1500 
 19 H        3.1490    -2.5730     1.3850 H     1 <1>   0.1500 
 20 C        1.1900    -1.8000     1.8370 C.ar  1 <1>  -0.1500 
 21 H        0.8570    -2.7250     2.3020 H     1 <1>   0.1500 
 22 C        0.3140    -0.7050     1.7620 C.ar  1 <1>  -0.1500 
 23 H       -0.6900    -0.7940     2.1720 H     1 <1>   0.1500 
 24 C        0.7180     0.4920     1.1680 C.ar  1 <1>  -0.1500 
 25 H        0.0350     1.3340     1.1130 H     1 <1>   0.1500 
 26 C        2.0050     0.5690     0.6550 C.ar  1 <1>  -0.1440 
 27 C        2.6920     1.7350    -0.0380 C.3   1 <1>   0.2820 
 28 C        1.9580     2.1120    -1.3300 C.3   1 <1>   0.0000 
 29 H        2.4810     2.9120    -1.8660 H     1 <1>   0.0000 
 30 H        0.9410     2.4650    -1.1230 H     1 <1>   0.0000 
 31 H        1.8730     1.2560    -2.0110 H     1 <1>   0.0000 
 32 C        2.8020     2.9420     0.9020 C.3   1 <1>   0.0000 
 33 H        3.3450     3.7670     0.4280 H     1 <1>   0.0000 
 34 H        3.3290     2.6860     1.8290 H     1 <1>   0.0000 
 35 H        1.8120     3.3190     1.1840 H     1 <1>   0.0000 
@<TRIPOS>BOND
  1   1   2  1   
  2   2   3  1   
  3   3   4  1   
  4   3  10  2   
  5   4   5  1   
  6   4   6  2   
  7   6   7  1   
  8   6  27  1   
  9   7   8  am  
 10   7  17  1   
 11   8   9  2   
 12   8  10  1   
 13  10  11  1   
 14  11  12  2   
 15  11  13  1   
 16  13  14  1   
 17  13  15  1   
 18  13  16  1   
 19  17  18  ar  
 20  17  26  ar  
 21  18  19  1   
 22  18  20  ar  
 23  20  21  1   
 24  20  22  ar  
 25  22  23  1   
 26  22  24  ar  
 27  24  25  1   
 28  24  26  ar  
 29  26  27  1   
 30  27  28  1   
 31  27  32  1   
 32  28  29  1   
 33  28  30  1   
 34  28  31  1   
 35  32  33  1   
 36  32  34  1   
 37  32  35  1   
@<TRIPOS>SUBSTRUCTURE
  1 ****   7 GROUP 4 **** **** 0

# MOE 2022.02 (io_trps.svl 2020.11)

@<TRIPOS>MOLECULE
CEP011
30 32 1 0 0 
SMALL
USER_CHARGES


@<TRIPOS>ATOM
  1 H       -8.7330     1.2480     0.0300 H     1 <1>   0.1500 
  2 C       -7.8940     0.5610    -0.0270 C.ar  1 <1>  -0.1500 
  3 C       -8.0870    -0.8230    -0.1480 C.ar  1 <1>   0.0820 
  4 O       -9.2960    -1.4600    -0.2070 O.3   1 <1>  -0.3630 
  5 C      -10.4600    -0.6460    -0.1370 C.3   1 <1>   0.2800 
  6 H      -10.5080     0.0460    -0.9830 H     1 <1>   0.0000 
  7 H      -10.5100    -0.1110     0.8170 H     1 <1>   0.0000 
  8 H      -11.3320    -1.3050    -0.1940 H     1 <1>   0.0000 
  9 C       -6.9800    -1.6720    -0.2190 C.ar  1 <1>  -0.1500 
 10 H       -7.1200    -2.7450    -0.3130 H     1 <1>   0.1500 
 11 C       -5.7080    -1.1230    -0.1670 C.ar  1 <1>   0.1020 
 12 S       -4.1650    -1.9900    -0.2380 S.3   1 <1>  -0.2420 
 13 C       -3.2820    -0.4790    -0.1010 C.2   1 <1>   0.6510 
 14 N       -1.9950    -0.4320    -0.0890 N.2   1 <1>  -0.6210 
 15 C       -1.4310     0.8220     0.0270 C.2   1 <1>   0.1850 
 16 C        0.0780     0.9030     0.0490 C.2   1 <1>   0.7060 
 17 O        0.8140    -0.0690    -0.0470 O.2   1 <1>  -0.5700 
 18 O        0.5070     2.1870     0.1910 O.3   1 <1>  -0.4300 
 19 C        1.9290     2.3230     0.2280 C.3   1 <1>   0.2800 
 20 H        2.3420     1.7880     1.0880 H     1 <1>   0.0000 
 21 H        2.3730     1.9630    -0.7060 H     1 <1>   0.0000 
 22 H        2.1650     3.3850     0.3350 H     1 <1>   0.0000 
 23 C       -2.1520     1.9490     0.1200 C.2   1 <1>  -0.1360 
 24 H       -1.7320     2.9420     0.2100 H     1 <1>   0.1500 
 25 C       -3.6270     1.8710     0.1020 C.2   1 <1>   0.6160 
 26 O       -4.2620     2.9170     0.1870 O.2   1 <1>  -0.5700 
 27 N       -4.1350     0.6010    -0.0110 N.am  1 <1>  -0.2370 
 28 C       -5.5070     0.2540    -0.0460 C.ar  1 <1>   0.1170 
 29 C       -6.6020     1.1050     0.0240 C.ar  1 <1>  -0.1500 
 30 H       -6.4910     2.1810     0.1190 H     1 <1>   0.1500 
@<TRIPOS>BOND
  1   1   2  1   
  2   2   3  ar  
  3   2  29  ar  
  4   3   4  1   
  5   3   9  ar  
  6   4   5  1   
  7   5   6  1   
  8   5   7  1   
  9   5   8  1   
 10   9  10  1   
 11   9  11  ar  
 12  11  12  1   
 13  11  28  ar  
 14  12  13  1   
 15  13  14  2   
 16  13  27  1   
 17  14  15  1   
 18  15  16  1   
 19  15  23  2   
 20  16  17  2   
 21  16  18  1   
 22  18  19  1   
 23  19  20  1   
 24  19  21  1   
 25  19  22  1   
 26  23  24  1   
 27  23  25  1   
 28  25  26  2   
 29  25  27  am  
 30  27  28  1   
 31  28  29  ar  
 32  29  30  1   
@<TRIPOS>SUBSTRUCTURE
  1 ****  27 GROUP 4 **** **** 0

# MOE 2022.02 (io_trps.svl 2020.11)

@<TRIPOS>MOLECULE
CEP012
23 24 1 0 0 
SMALL
USER_CHARGES


@<TRIPOS>ATOM
  1 H        0.3170    -2.0150     0.9510 H     1 <1>   0.0600 
  2 C        0.3950    -1.1810     0.2340 C.2   1 <1>   0.4960 
  3 O       -0.5420    -0.9090    -0.5060 O.2   1 <1>  -0.5700 
  4 C        1.6980    -0.4720     0.2080 C.2   1 <1>   0.0290 
  5 C        2.8410    -1.1690     0.3190 C.2   1 <1>   0.1120 
  6 CL       2.8320    -2.9070     0.4670 Cl    1 <1>  -0.1400 
  7 C        4.1520    -0.4890     0.2540 C.ar  1 <1>   0.0280 
  8 C        5.3730    -1.1820     0.3820 C.ar  1 <1>  -0.1500 
  9 H        5.4050    -2.2570     0.5530 H     1 <1>   0.1500 
 10 C        6.5990    -0.5190     0.2940 C.ar  1 <1>  -0.1500 
 11 H        7.5250    -1.0790     0.3950 H     1 <1>   0.1500 
 12 C        6.6200     0.8490     0.0750 C.ar  1 <1>   0.1770 
 13 CL       8.1250     1.6740    -0.0370 Cl    1 <1>  -0.1770 
 14 C        5.4290     1.5590    -0.0500 C.ar  1 <1>  -0.1500 
 15 H        5.4940     2.6300    -0.2140 H     1 <1>   0.1500 
 16 C        4.1870     0.9030     0.0400 C.ar  1 <1>   0.1170 
 17 N        2.9620     1.6250    -0.0590 N.am  1 <1>  -0.4770 
 18 C        2.9840     3.0670    -0.2790 C.3   1 <1>   0.3000 
 19 H        3.5150     3.2850    -1.2110 H     1 <1>   0.0000 
 20 H        3.4790     3.5550     0.5670 H     1 <1>   0.0000 
 21 H        1.9790     3.4890    -0.3670 H     1 <1>   0.0000 
 22 C        1.7210     1.0070     0.0630 C.2   1 <1>   0.6160 
 23 O        0.6690     1.6430     0.0900 O.2   1 <1>  -0.5700 
@<TRIPOS>BOND
  1   1   2  1   
  2   2   3  2   
  3   2   4  1   
  4   4   5  2   
  5   4  22  1   
  6   5   6  1   
  7   5   7  1   
  8   7   8  ar  
  9   7  16  ar  
 10   8   9  1   
 11   8  10  ar  
 12  10  11  1   
 13  10  12  ar  
 14  12  13  1   
 15  12  14  ar  
 16  14  15  1   
 17  14  16  ar  
 18  16  17  1   
 19  17  18  1   
 20  17  22  am  
 21  18  19  1   
 22  18  20  1   
 23  18  21  1   
 24  22  23  2   
@<TRIPOS>SUBSTRUCTURE
  1 ****  16 GROUP 4 **** **** 0

# MOE 2022.02 (io_trps.svl 2020.11)

@<TRIPOS>MOLECULE
CEP013
43 44 1 0 0 
SMALL
USER_CHARGES


@<TRIPOS>ATOM
  1 H        4.6410     2.0010     0.5040 H     1 <1>   0.1500 
  2 C        4.5440     2.8570    -0.1590 C.2   1 <1>  -0.1500 
  3 C        5.6020     3.1470    -0.9340 C.2   1 <1>  -0.0500 
  4 H        5.5620     3.9960    -1.6120 H     1 <1>   0.1500 
  5 N        6.8230     2.4920    -1.0130 N.pl3 1 <1>  -0.8380 
  6 C        7.1570     1.3300    -0.1920 C.3   1 <1>   0.3690 
  7 H        6.4750     0.5010    -0.4080 H     1 <1>   0.0000 
  8 H        7.0890     1.5810     0.8720 H     1 <1>   0.0000 
  9 H        8.1770     0.9780    -0.3820 H     1 <1>   0.0000 
 10 C        7.8790     2.9350    -1.9210 C.3   1 <1>   0.3690 
 11 H        8.2400     2.0960    -2.5260 H     1 <1>   0.0000 
 12 H        8.7190     3.3420    -1.3490 H     1 <1>   0.0000 
 13 H        7.5320     3.7110    -2.6120 H     1 <1>   0.0000 
 14 C        3.2660     3.5810    -0.1040 C.2   1 <1>  -0.1380 
 15 C        2.2370     3.1580     0.6700 C.2   1 <1>   0.0290 
 16 C        0.9510     3.8650     0.7210 C.2   1 <1>   0.6160 
 17 O        0.8720     4.9570     1.2830 O.2   1 <1>  -0.5700 
 18 N       -0.0980     3.2580     0.0460 N.am  1 <1>  -0.4770 
 19 C       -1.3500     4.0070    -0.0090 C.3   1 <1>   0.3000 
 20 H       -1.4340     4.7020     0.8330 H     1 <1>   0.0000 
 21 H       -1.3740     4.5930    -0.9330 H     1 <1>   0.0000 
 22 H       -2.2080     3.3290     0.0410 H     1 <1>   0.0000 
 23 C       -0.0280     1.9840    -0.6170 C.ar  1 <1>   0.1170 
 24 C       -0.8360     1.8150    -1.7660 C.ar  1 <1>  -0.1500 
 25 H       -1.4260     2.6390    -2.1620 H     1 <1>   0.1500 
 26 C       -0.8920     0.6120    -2.4690 C.ar  1 <1>  -0.1500 
 27 H       -1.5150     0.5260    -3.3560 H     1 <1>   0.1500 
 28 C       -0.1440    -0.4650    -2.0350 C.ar  1 <1>  -0.1500 
 29 H       -0.1720    -1.4070    -2.5770 H     1 <1>   0.1500 
 30 C        0.6550    -0.3340    -0.9000 C.ar  1 <1>  -0.1500 
 31 H        1.2420    -1.2030    -0.6130 H     1 <1>   0.1500 
 32 C        0.7400     0.8750    -0.1690 C.ar  1 <1>   0.1170 
 33 N        1.5570     0.8630     1.0150 N.am  1 <1>  -0.4770 
 34 C        1.6800    -0.3820     1.7660 C.3   1 <1>   0.3000 
 35 H        2.4810    -0.9860     1.3280 H     1 <1>   0.0000 
 36 H        0.7330    -0.9330     1.7580 H     1 <1>   0.0000 
 37 H        1.9370    -0.1900     2.8130 H     1 <1>   0.0000 
 38 C        2.2810     1.9450     1.4970 C.2   1 <1>   0.6160 
 39 O        2.9750     1.9120     2.5120 O.2   1 <1>  -0.5700 
 40 C        3.1580     4.8160    -0.9730 C.3   1 <1>   0.1380 
 41 H        3.3160     4.5600    -2.0270 H     1 <1>   0.0000 
 42 H        2.1830     5.3080    -0.9240 H     1 <1>   0.0000 
 43 H        3.9040     5.5620    -0.6750 H     1 <1>   0.0000 
@<TRIPOS>BOND
  1   1   2  1   
  2   2   3  2   
  3   2  14  1   
  4   3   4  1   
  5   3   5  1   
  6   5   6  1   
  7   5  10  1   
  8   6   7  1   
  9   6   8  1   
 10   6   9  1   
 11  10  11  1   
 12  10  12  1   
 13  10  13  1   
 14  14  15  2   
 15  14  40  1   
 16  15  16  1   
 17  15  38  1   
 18  16  17  2   
 19  16  18  am  
 20  18  19  1   
 21  18  23  1   
 22  19  20  1   
 23  19  21  1   
 24  19  22  1   
 25  23  24  ar  
 26  23  32  ar  
 27  24  25  1   
 28  24  26  ar  
 29  26  27  1   
 30  26  28  ar  
 31  28  29  1   
 32  28  30  ar  
 33  30  31  1   
 34  30  32  ar  
 35  32  33  1   
 36  33  34  1   
 37  33  38  am  
 38  34  35  1   
 39  34  36  1   
 40  34  37  1   
 41  38  39  2   
 42  40  41  1   
 43  40  42  1   
 44  40  43  1   
@<TRIPOS>SUBSTRUCTURE
  1 ****  15 GROUP 4 **** **** 0

# MOE 2022.02 (io_trps.svl 2020.11)

@<TRIPOS>MOLECULE
CEP014
28 30 1 0 0 
SMALL
USER_CHARGES


@<TRIPOS>ATOM
  1 H       14.2350     2.0420     0.3170 H     1 <1>   0.4000 
  2 N       13.6500     1.7360     1.0950 N.2   1 <1>  -0.8500 
  3 C       12.4110     1.8510     0.7900 C.2   1 <1>   0.6410 
  4 S       11.1630     1.4060     1.9250 S.3   1 <1>  -0.2820 
  5 C       10.0050     1.8830     0.7050 C.2   1 <1>   0.7320 
  6 S        8.3200     1.7440     1.0790 S.3   1 <1>  -0.3710 
  7 C        7.6110     2.5420    -0.3870 C.3   1 <1>   0.2910 
  8 H        8.0410     3.5360    -0.5430 H     1 <1>   0.0000 
  9 H        7.8210     1.9320    -1.2720 H     1 <1>   0.0000 
 10 C        6.1190     2.6530    -0.2160 C.2   1 <1>   0.3890 
 11 N        5.3310     1.7220    -0.6770 N.2   1 <1>  -0.6290 
 12 C        3.9480     1.8640    -0.4650 C.ar  1 <1>   0.1790 
 13 C        3.0900     0.8750    -0.9480 C.ar  1 <1>  -0.1500 
 14 H        3.5040     0.0200    -1.4770 H     1 <1>   0.1500 
 15 C        1.7100     0.9760    -0.7550 C.ar  1 <1>  -0.1500 
 16 H        1.0530     0.1980    -1.1350 H     1 <1>   0.1500 
 17 C        1.1780     2.0720    -0.0740 C.ar  1 <1>  -0.1500 
 18 H        0.1030     2.1460     0.0750 H     1 <1>   0.1500 
 19 C        2.0220     3.0690     0.4150 C.ar  1 <1>  -0.1500 
 20 H        1.5950     3.9170     0.9430 H     1 <1>   0.1500 
 21 C        3.3980     2.9610     0.2170 C.ar  1 <1>   0.1170 
 22 N        4.2510     3.9570     0.7000 N.am  1 <1>  -0.5470 
 23 H        3.8890     4.7610     1.1930 H     1 <1>   0.3700 
 24 C        5.6090     3.8870     0.5230 C.2   1 <1>   0.6300 
 25 O        6.3820     4.7510     0.9100 O.2   1 <1>  -0.5700 
 26 N       10.4700     2.3210    -0.4280 N.2   1 <1>  -0.4920 
 27 N       11.8480     2.3010    -0.3720 N.pl3 1 <1>  -0.4650 
 28 H       12.4000     2.5900    -1.1150 H     1 <1>   0.4570 
@<TRIPOS>BOND
  1   1   2  1   
  2   2   3  2   
  3   3   4  1   
  4   3  27  1   
  5   4   5  1   
  6   5   6  1   
  7   5  26  2   
  8   6   7  1   
  9   7   8  1   
 10   7   9  1   
 11   7  10  1   
 12  10  11  2   
 13  10  24  1   
 14  11  12  1   
 15  12  13  ar  
 16  12  21  ar  
 17  13  14  1   
 18  13  15  ar  
 19  15  16  1   
 20  15  17  ar  
 21  17  18  1   
 22  17  19  ar  
 23  19  20  1   
 24  19  21  ar  
 25  21  22  1   
 26  22  23  1   
 27  22  24  am  
 28  24  25  2   
 29  26  27  1   
 30  27  28  1   
@<TRIPOS>SUBSTRUCTURE
  1 ****  10 GROUP 4 **** **** 0

# MOE 2022.02 (io_trps.svl 2020.11)

@<TRIPOS>MOLECULE
CEP015
39 40 1 0 0 
SMALL
USER_CHARGES


@<TRIPOS>ATOM
  1 H       13.8440    -4.2550    -0.2010 H     1 <1>   0.4000 
  2 O       13.4040    -3.3900    -0.1220 O.3   1 <1>  -0.6800 
  3 C       11.9950    -3.6190    -0.1840 C.3   1 <1>   0.2800 
  4 H       11.7790    -4.0520    -1.1670 H     1 <1>   0.0000 
  5 C       11.6060    -4.6080     0.9090 C.3   1 <1>   0.0000 
  6 H       10.5400    -4.8490     0.8780 H     1 <1>   0.0000 
  7 H       11.8480    -4.2090     1.9000 H     1 <1>   0.0000 
  8 H       12.1720    -5.5390     0.8000 H     1 <1>   0.0000 
  9 C       11.2690    -2.2650    -0.0430 C.3   1 <1>   0.2700 
 10 H       11.4940    -1.8460     0.9460 H     1 <1>   0.0000 
 11 H       11.6860    -1.5650    -0.7780 H     1 <1>   0.0000 
 12 N        9.8170    -2.3880    -0.2290 N.3   1 <1>  -0.9000 
 13 H        9.6390    -2.7140    -1.1790 H     1 <1>   0.3600 
 14 C        9.1640    -1.0780    -0.0710 C.3   1 <1>   0.4080 
 15 H        9.4650    -0.6350     0.8870 H     1 <1>   0.0000 
 16 H        9.5120    -0.4160    -0.8740 H     1 <1>   0.0000 
 17 C        7.6580    -1.1360    -0.0950 C.2   1 <1>  -0.1240 
 18 C        6.9050    -2.2500    -0.1000 C.2   1 <1>  -0.1780 
 19 H        7.3630    -3.2340    -0.0720 H     1 <1>   0.1500 
 20 C        5.4440    -2.1840    -0.1250 C.ar  1 <1>   0.0280 
 21 C        4.6790    -3.3480    -0.1310 C.ar  1 <1>  -0.1500 
 22 H        5.1530    -4.3260    -0.1160 H     1 <1>   0.1500 
 23 C        3.2870    -3.2660    -0.1550 C.ar  1 <1>  -0.1500 
 24 H        2.7110    -4.1900    -0.1590 H     1 <1>   0.1500 
 25 C        2.6330    -2.0220    -0.1730 C.ar  1 <1>  -0.1440 
 26 C        1.1280    -2.0090    -0.1970 C.3   1 <1>   0.1440 
 27 H        0.7660    -1.5060    -1.0990 H     1 <1>   0.0000 
 28 H        0.7380    -1.5030     0.6920 H     1 <1>   0.0000 
 29 H        0.7150    -3.0240    -0.2030 H     1 <1>   0.0000 
 30 C        3.3980    -0.8320    -0.1660 C.ar  1 <1>  -0.1440 
 31 C        2.7420     0.5250    -0.1820 C.3   1 <1>   0.1440 
 32 H        3.0530     1.0820    -1.0720 H     1 <1>   0.0000 
 33 H        3.0210     1.0870     0.7160 H     1 <1>   0.0000 
 34 H        1.6500     0.4780    -0.2020 H     1 <1>   0.0000 
 35 C        4.8060    -0.9340    -0.1420 C.ar  1 <1>   0.1170 
 36 N        5.6140     0.2150    -0.1340 N.am  1 <1>  -0.5470 
 37 H        5.1990     1.1350    -0.1450 H     1 <1>   0.3700 
 38 C        6.9820     0.1980    -0.1120 C.2   1 <1>   0.6160 
 39 O        7.6260     1.2440    -0.1070 O.2   1 <1>  -0.5700 
@<TRIPOS>BOND
  1   1   2  1   
  2   2   3  1   
  3   3   4  1   
  4   3   5  1   
  5   3   9  1   
  6   5   6  1   
  7   5   7  1   
  8   5   8  1   
  9   9  10  1   
 10   9  11  1   
 11   9  12  1   
 12  12  13  1   
 13  12  14  1   
 14  14  15  1   
 15  14  16  1   
 16  14  17  1   
 17  17  18  2   
 18  17  38  1   
 19  18  19  1   
 20  18  20  1   
 21  20  21  ar  
 22  20  35  ar  
 23  21  22  1   
 24  21  23  ar  
 25  23  24  1   
 26  23  25  ar  
 27  25  26  1   
 28  25  30  ar  
 29  26  27  1   
 30  26  28  1   
 31  26  29  1   
 32  30  31  1   
 33  30  35  ar  
 34  31  32  1   
 35  31  33  1   
 36  31  34  1   
 37  35  36  1   
 38  36  37  1   
 39  36  38  am  
 40  38  39  2   
@<TRIPOS>SUBSTRUCTURE
  1 ****  18 GROUP 4 **** **** 0

# MOE 2022.02 (io_trps.svl 2020.11)

@<TRIPOS>MOLECULE
CEP016
40 41 1 0 0 
SMALL
USER_CHARGES


@<TRIPOS>ATOM
  1 H       -1.4600     0.8710     1.4840 H     1 <1>   0.1500 
  2 C       -1.5360    -0.1890     1.2560 C.ar  1 <1>  -0.1500 
  3 C       -2.7840    -0.7860     1.1140 C.ar  1 <1>  -0.1500 
  4 H       -3.6880    -0.1930     1.2250 H     1 <1>   0.1500 
  5 C       -2.8710    -2.1410     0.7960 C.ar  1 <1>  -0.1500 
  6 H       -3.8500    -2.5860     0.6460 H     1 <1>   0.1500 
  7 C       -1.7120    -2.9120     0.6390 C.ar  1 <1>   0.1990 
  8 C       -0.4420    -2.3210     0.8080 C.ar  1 <1>   0.1170 
  9 C       -0.3750    -0.9500     1.1000 C.ar  1 <1>  -0.1500 
 10 H        0.5880    -0.4600     1.2290 H     1 <1>   0.1500 
 11 N        0.7710    -3.0850     0.7480 N.am  1 <1>  -0.4770 
 12 C        1.8490    -2.6240    -0.0220 C.2   1 <1>   0.5690 
 13 O        1.8460    -1.5550    -0.6350 O.2   1 <1>  -0.5700 
 14 C        3.0710    -3.5350    -0.0840 C.3   1 <1>   0.0610 
 15 H        2.7490    -4.5460    -0.3540 H     1 <1>   0.0000 
 16 H        3.5310    -3.5600     0.9110 H     1 <1>   0.0000 
 17 C        4.1080    -3.0540    -1.0990 C.3   1 <1>   0.0000 
 18 H        4.4530    -2.0470    -0.8350 H     1 <1>   0.0000 
 19 H        3.6520    -2.9840    -2.0940 H     1 <1>   0.0000 
 20 C        5.3030    -3.9910    -1.1600 C.3   1 <1>   0.0000 
 21 H        4.9970    -4.9970    -1.4620 H     1 <1>   0.0000 
 22 H        5.7990    -4.0590    -0.1860 H     1 <1>   0.0000 
 23 H        6.0340    -3.6250    -1.8890 H     1 <1>   0.0000 
 24 C        0.7940    -4.3130     1.5520 C.3   1 <1>   0.3000 
 25 H        0.3340    -4.0980     2.5260 H     1 <1>   0.0000 
 26 H        1.8290    -4.5820     1.7820 H     1 <1>   0.0000 
 27 C        0.1250    -5.5040     0.8880 C.3   1 <1>   0.0000 
 28 H        0.4920    -5.6220    -0.1360 H     1 <1>   0.0000 
 29 H        0.4080    -6.4120     1.4340 H     1 <1>   0.0000 
 30 C       -1.3910    -5.3880     0.9290 C.3   1 <1>   0.3560 
 31 H       -1.7430    -5.2890     1.9640 H     1 <1>   0.0000 
 32 H       -1.8410    -6.3150     0.5550 H     1 <1>   0.0000 
 33 N       -1.8800    -4.2510     0.1420 N.am  1 <1>  -0.6930 
 34 S       -2.1020    -4.4420    -1.5340 S.o2  1 <1>   1.3330 
 35 O       -2.1570    -3.1560    -2.1940 O.2   1 <1>  -0.6500 
 36 O       -1.2280    -5.4980    -2.0040 O.2   1 <1>  -0.6500 
 37 C       -3.7560    -5.0950    -1.5490 C.3   1 <1>   0.1050 
 38 H       -4.4360    -4.3600    -1.1140 H     1 <1>   0.0000 
 39 H       -3.7810    -6.0320    -0.9900 H     1 <1>   0.0000 
 40 H       -4.0340    -5.2810    -2.5900 H     1 <1>   0.0000 
@<TRIPOS>BOND
  1   1   2  1   
  2   2   3  ar  
  3   2   9  ar  
  4   3   4  1   
  5   3   5  ar  
  6   5   6  1   
  7   5   7  ar  
  8   7   8  ar  
  9   7  33  1   
 10   8   9  ar  
 11   8  11  1   
 12   9  10  1   
 13  11  12  am  
 14  11  24  1   
 15  12  13  2   
 16  12  14  1   
 17  14  15  1   
 18  14  16  1   
 19  14  17  1   
 20  17  18  1   
 21  17  19  1   
 22  17  20  1   
 23  20  21  1   
 24  20  22  1   
 25  20  23  1   
 26  24  25  1   
 27  24  26  1   
 28  24  27  1   
 29  27  28  1   
 30  27  29  1   
 31  27  30  1   
 32  30  31  1   
 33  30  32  1   
 34  30  33  1   
 35  33  34  am  
 36  34  35  2   
 37  34  36  2   
 38  34  37  1   
 39  37  38  1   
 40  37  39  1   
 41  37  40  1   
@<TRIPOS>SUBSTRUCTURE
  1 ****   8 GROUP 4 **** **** 0

# MOE 2022.02 (io_trps.svl 2020.11)

@<TRIPOS>MOLECULE
CEP017
42 44 1 0 0 
SMALL
USER_CHARGES


@<TRIPOS>ATOM
  1 H       -4.4020     4.1340    -0.8020 H     1 <1>   0.1500 
  2 C       -3.3910     4.3200    -0.4500 C.ar  1 <1>  -0.1500 
  3 C       -2.8990     3.6300     0.6560 C.ar  1 <1>  -0.1500 
  4 H       -3.5260     2.9030     1.1660 H     1 <1>   0.1500 
  5 C       -1.6000     3.8700     1.1120 C.ar  1 <1>  -0.1500 
  6 H       -1.2350     3.3180     1.9740 H     1 <1>   0.1500 
  7 C       -0.7760     4.7990     0.4720 C.ar  1 <1>   0.1000 
  8 C       -1.2850     5.4820    -0.6400 C.ar  1 <1>   0.1170 
  9 C       -2.5830     5.2520    -1.1000 C.ar  1 <1>  -0.1500 
 10 H       -2.9770     5.7910    -1.9570 H     1 <1>   0.1500 
 11 N       -0.4980     6.4450    -1.2770 N.am  1 <1>  -0.5470 
 12 H       -0.8790     6.9920    -2.0360 H     1 <1>   0.3700 
 13 C        0.7930     6.7260    -0.9170 C.2   1 <1>   0.5690 
 14 O        1.3820     7.6390    -1.5010 O.2   1 <1>  -0.5700 
 15 C        1.4800     5.8200     0.1510 C.3   1 <1>   0.4300 
 16 N        0.5120     5.0130     0.9220 N.pl3 1 <1>  -0.8690 
 17 H        0.8120     4.5860     1.7890 H     1 <1>   0.4000 
 18 C        2.2580     6.6950     1.1590 C.3   1 <1>   0.0000 
 19 H        2.4960     6.0970     2.0490 H     1 <1>   0.0000 
 20 H        1.6320     7.5270     1.5060 H     1 <1>   0.0000 
 21 C        3.5690     7.2440     0.6050 C.3   1 <1>   0.3000 
 22 H        4.1190     7.7390     1.4130 H     1 <1>   0.0000 
 23 H        3.4010     8.0050    -0.1630 H     1 <1>   0.0000 
 24 N        4.3580     6.1750     0.0060 N.am  1 <1>  -0.6600 
 25 C        5.6300     5.9050     0.4980 C.2   1 <1>   0.5690 
 26 O        6.1100     6.5260     1.4470 O.2   1 <1>  -0.5700 
 27 C        6.4100     4.7910    -0.1860 C.3   1 <1>   0.0610 
 28 H        6.5220     5.0470    -1.2460 H     1 <1>   0.0000 
 29 H        5.8330     3.8630    -0.1030 H     1 <1>   0.0000 
 30 C        7.7930     4.5810     0.4300 C.3   1 <1>   0.0000 
 31 H        7.6950     4.3380     1.4940 H     1 <1>   0.0000 
 32 H        8.3750     5.5080     0.3670 H     1 <1>   0.0000 
 33 C        8.5520     3.4650    -0.2710 C.3   1 <1>   0.0000 
 34 H        8.0120     2.5160    -0.1950 H     1 <1>   0.0000 
 35 H        9.5380     3.3330     0.1860 H     1 <1>   0.0000 
 36 H        8.6960     3.6950    -1.3310 H     1 <1>   0.0000 
 37 C        3.6930     5.4710    -1.0850 C.3   1 <1>   0.3000 
 38 H        4.3320     4.7020    -1.5240 H     1 <1>   0.0000 
 39 H        3.4900     6.1980    -1.8780 H     1 <1>   0.0000 
 40 C        2.4090     4.8230    -0.5790 C.3   1 <1>   0.0000 
 41 H        2.6840     4.0110     0.1100 H     1 <1>   0.0000 
 42 H        1.8860     4.3510    -1.4200 H     1 <1>   0.0000 
@<TRIPOS>BOND
  1   1   2  1   
  2   2   3  ar  
  3   2   9  ar  
  4   3   4  1   
  5   3   5  ar  
  6   5   6  1   
  7   5   7  ar  
  8   7   8  ar  
  9   7  16  1   
 10   8   9  ar  
 11   8  11  1   
 12   9  10  1   
 13  11  12  1   
 14  11  13  am  
 15  13  14  2   
 16  13  15  1   
 17  15  16  1   
 18  15  18  1   
 19  15  40  1   
 20  16  17  1   
 21  18  19  1   
 22  18  20  1   
 23  18  21  1   
 24  21  22  1   
 25  21  23  1   
 26  21  24  1   
 27  24  25  am  
 28  24  37  1   
 29  25  26  2   
 30  25  27  1   
 31  27  28  1   
 32  27  29  1   
 33  27  30  1   
 34  30  31  1   
 35  30  32  1   
 36  30  33  1   
 37  33  34  1   
 38  33  35  1   
 39  33  36  1   
 40  37  38  1   
 41  37  39  1   
 42  37  40  1   
 43  40  41  1   
 44  40  42  1   
@<TRIPOS>SUBSTRUCTURE
  1 ****  15 GROUP 4 **** **** 0

# MOE 2022.02 (io_trps.svl 2020.11)

@<TRIPOS>MOLECULE
CEP018
28 31 1 0 0 
SMALL
USER_CHARGES


@<TRIPOS>ATOM
  1 H        7.6080     3.6680     0.2230 H     1 <1>   0.4500 
  2 O        6.6460     3.7960     0.1970 O.3   1 <1>  -0.5270 
  3 C        6.0010     2.5850     0.1140 C.2   1 <1>   0.0770 
  4 C        6.6740     1.4300     0.0790 C.2   1 <1>  -0.1360 
  5 H        7.7540     1.3710     0.1110 H     1 <1>   0.1500 
  6 C        5.9680     0.1440    -0.0090 C.2   1 <1>   0.7060 
  7 O        6.6000    -0.9050    -0.0420 O.2   1 <1>  -0.5700 
  8 O        4.6060     0.1820    -0.0500 O.3   1 <1>  -0.2270 
  9 C        3.9190     1.4150    -0.0110 C.2   1 <1>   0.0480 
 10 C        4.5510     2.6080     0.0680 C.2   1 <1>   0.0140 
 11 C        3.7380     3.8990     0.1040 C.2   1 <1>   0.6160 
 12 O        4.2430     5.0150     0.1740 O.2   1 <1>  -0.5700 
 13 N        2.3750     3.7320     0.0520 N.am  1 <1>  -0.4770 
 14 C        1.7640     2.4960    -0.0270 C.ar  1 <1>   0.1170 
 15 C        0.3840     2.6090    -0.0660 C.ar  1 <1>  -0.1440 
 16 C       -0.3800     1.4620    -0.1450 C.ar  1 <1>  -0.1500 
 17 H       -1.4640     1.5080    -0.1780 H     1 <1>   0.1500 
 18 C        0.2840     0.2250    -0.1840 C.ar  1 <1>  -0.1500 
 19 H       -0.2980    -0.6920    -0.2460 H     1 <1>   0.1500 
 20 C        1.6940     0.1460    -0.1430 C.ar  1 <1>  -0.1500 
 21 H        2.1710    -0.8310    -0.1740 H     1 <1>   0.1500 
 22 C        2.4590     1.3090    -0.0630 C.ar  1 <1>   0.0280 
 23 C       -0.0170     4.0510    -0.0100 C.3   1 <1>   0.1440 
 24 H       -0.5630     4.3460    -0.9120 H     1 <1>   0.0000 
 25 H       -0.6250     4.2610     0.8750 H     1 <1>   0.0000 
 26 C        1.3500     4.7760     0.0720 C.3   1 <1>   0.3000 
 27 H        1.5100     5.4510    -0.7770 H     1 <1>   0.0000 
 28 H        1.4510     5.3590     0.9940 H     1 <1>   0.0000 
@<TRIPOS>BOND
  1   1   2  1   
  2   2   3  1   
  3   3   4  2   
  4   3  10  1   
  5   4   5  1   
  6   4   6  1   
  7   6   7  2   
  8   6   8  1   
  9   8   9  1   
 10   9  10  2   
 11   9  22  1   
 12  10  11  1   
 13  11  12  2   
 14  11  13  am  
 15  13  14  1   
 16  13  26  1   
 17  14  15  ar  
 18  14  22  ar  
 19  15  16  ar  
 20  15  23  1   
 21  16  17  1   
 22  16  18  ar  
 23  18  19  1   
 24  18  20  ar  
 25  20  21  1   
 26  20  22  ar  
 27  23  24  1   
 28  23  25  1   
 29  23  26  1   
 30  26  27  1   
 31  26  28  1   
@<TRIPOS>SUBSTRUCTURE
  1 ****   9 GROUP 4 **** **** 0

# MOE 2022.02 (io_trps.svl 2020.11)

@<TRIPOS>MOLECULE
CEP019
33 36 1 0 0 
SMALL
USER_CHARGES


@<TRIPOS>ATOM
  1 H        1.0490     4.9370     0.8690 H     1 <1>   0.1500 
  2 C        1.8840     4.2950     0.6040 C.ar  1 <1>  -0.1500 
  3 C        1.6820     2.9730     0.1890 C.ar  1 <1>   0.1170 
  4 N        0.4070     2.3710     0.0780 N.am  1 <1>  -0.5470 
  5 H        0.4110     1.4050    -0.2230 H     1 <1>   0.3700 
  6 C       -0.8200     2.9570     0.3180 C.2   1 <1>   0.6160 
  7 O       -1.0450     4.1250     0.6100 O.2   1 <1>  -0.5700 
  8 C       -1.9620     2.0020     0.1430 C.2   1 <1>   0.0140 
  9 C       -1.9570     0.6650     0.7380 C.2   1 <1>  -0.1500 
 10 H       -1.1110     0.3470     1.3390 H     1 <1>   0.1500 
 11 C       -3.0280    -0.1310     0.5610 C.2   1 <1>  -0.1810 
 12 H       -3.1140    -1.1280     0.9720 H     1 <1>   0.1500 
 13 N       -4.1160     0.3310    -0.1780 N.pl3 1 <1>   0.6010 
 14 N       -5.2760    -0.2890    -0.4880 N.2   1 <1>  -0.4180 
 15 N       -5.9750     0.5770    -1.2110 N.2   1 <1>   0.0000 
 16 N       -5.2930     1.7550    -1.3800 N.2   1 <1>  -0.3380 
 17 C       -4.1530     1.6060    -0.7450 C.2   1 <1>   0.1420 
 18 C       -3.0290     2.4550    -0.5520 C.2   1 <1>  -0.1050 
 19 H       -3.0590     3.4550    -0.9760 H     1 <1>   0.1500 
 20 C        2.7880     2.1720    -0.1400 C.ar  1 <1>  -0.1500 
 21 H        2.6820     1.1440    -0.4660 H     1 <1>   0.1500 
 22 C        4.0800     2.7130    -0.0520 C.ar  1 <1>   0.2270 
 23 N        5.2950     2.1330    -0.3210 N.2   1 <1>  -0.5650 
 24 C        6.1940     3.0660    -0.0830 C.2   1 <1>   0.0070 
 25 C        7.6630     2.9400    -0.2230 C.3   1 <1>   0.1800 
 26 H        7.9310     1.9460    -0.5920 H     1 <1>   0.0000 
 27 H        8.0490     3.6820    -0.9300 H     1 <1>   0.0000 
 28 H        8.1550     3.0900     0.7430 H     1 <1>   0.0000 
 29 N        5.5940     4.2300     0.3320 N.pl3 1 <1>   0.0330 
 30 H        6.0700     5.0870     0.5750 H     1 <1>   0.2700 
 31 C        4.2390     4.0280     0.3600 C.ar  1 <1>  -0.1520 
 32 C        3.1680     4.8540     0.6990 C.ar  1 <1>  -0.1500 
 33 H        3.3080     5.8800     1.0200 H     1 <1>   0.1500 
@<TRIPOS>BOND
  1   1   2  1   
  2   2   3  ar  
  3   2  32  ar  
  4   3   4  1   
  5   3  20  ar  
  6   4   5  1   
  7   4   6  am  
  8   6   7  2   
  9   6   8  1   
 10   8   9  1   
 11   8  18  2   
 12   9  10  1   
 13   9  11  2   
 14  11  12  1   
 15  11  13  1   
 16  13  14  1   
 17  13  17  1   
 18  14  15  2   
 19  15  16  1   
 20  16  17  2   
 21  17  18  1   
 22  18  19  1   
 23  20  21  1   
 24  20  22  ar  
 25  22  23  1   
 26  22  31  ar  
 27  23  24  2   
 28  24  25  1   
 29  24  29  1   
 30  25  26  1   
 31  25  27  1   
 32  25  28  1   
 33  29  30  1   
 34  29  31  1   
 35  31  32  ar  
 36  32  33  1   
@<TRIPOS>SUBSTRUCTURE
  1 ****   4 GROUP 4 **** **** 0

# MOE 2022.02 (io_trps.svl 2020.11)

@<TRIPOS>MOLECULE
CEP020
43 45 1 0 0 
SMALL
USER_CHARGES


@<TRIPOS>ATOM
  1 H       -4.5480    -7.0410     1.3870 H     1 <1>   0.1500 
  2 C       -4.7570    -5.9920     1.1980 C.ar  1 <1>  -0.1500 
  3 C       -5.9670    -5.4370     1.5840 C.ar  1 <1>  -0.1500 
  4 H       -6.7170    -6.0480     2.0780 H     1 <1>   0.1500 
  5 C       -6.2150    -4.0830     1.3480 C.ar  1 <1>  -0.1500 
  6 H       -7.1700    -3.6720     1.6670 H     1 <1>   0.1500 
  7 C       -5.2750    -3.2490     0.7090 C.ar  1 <1>   0.1000 
  8 C       -4.0460    -3.8320     0.3040 C.ar  1 <1>   0.1170 
  9 C       -3.8040    -5.1940     0.5680 C.ar  1 <1>  -0.1500 
 10 H       -2.8630    -5.6510     0.2710 H     1 <1>   0.1500 
 11 N       -3.0180    -3.0730    -0.3520 N.am  1 <1>  -0.4770 
 12 C       -1.6970    -3.1230     0.1260 C.2   1 <1>   0.5690 
 13 O       -1.3400    -3.8290     1.0730 O.2   1 <1>  -0.5700 
 14 C       -0.6890    -2.2210    -0.5870 C.3   1 <1>   0.2420 
 15 H       -0.5100    -2.6360    -1.5860 H     1 <1>   0.0000 
 16 H       -1.1200    -1.2210    -0.7090 H     1 <1>   0.0000 
 17 C        0.6060    -2.0800     0.1380 C.2   1 <1>  -0.1810 
 18 C        0.9140    -1.2030     1.2160 C.2   1 <1>   0.1080 
 19 C        0.0210    -0.2370     1.8970 C.3   1 <1>   0.1810 
 20 H        0.4840     0.1740     2.8010 H     1 <1>   0.0000 
 21 H       -0.9170    -0.7190     2.1900 H     1 <1>   0.0000 
 22 H       -0.2160     0.5960     1.2270 H     1 <1>   0.0000 
 23 N        2.1910    -1.3220     1.5960 N.2   1 <1>  -0.4100 
 24 O        2.7300    -2.3110     0.7990 O.3   1 <1>  -0.0190 
 25 C        1.7860    -2.7640    -0.0670 C.2   1 <1>  -0.0400 
 26 C        2.2110    -3.8440    -0.9770 C.3   1 <1>   0.1800 
 27 H        1.5920    -3.8680    -1.8790 H     1 <1>   0.0000 
 28 H        2.1280    -4.8140    -0.4780 H     1 <1>   0.0000 
 29 H        3.2510    -3.7050    -1.2890 H     1 <1>   0.0000 
 30 C       -3.4450    -2.2940    -1.5180 C.3   1 <1>   0.3000 
 31 H       -2.5840    -2.0850    -2.1580 H     1 <1>   0.0000 
 32 H       -4.1070    -2.9210    -2.1290 H     1 <1>   0.0000 
 33 C       -4.1110    -0.9790    -1.1550 C.3   1 <1>   0.0000 
 34 H       -3.5360    -0.4420    -0.3920 H     1 <1>   0.0000 
 35 H       -4.1440    -0.3440    -2.0490 H     1 <1>   0.0000 
 36 C       -5.5350    -1.2230    -0.6920 C.3   1 <1>   0.3690 
 37 H       -6.0480    -0.2570    -0.6190 H     1 <1>   0.0000 
 38 H       -6.0970    -1.8020    -1.4350 H     1 <1>   0.0000 
 39 N       -5.5670    -1.8940     0.5920 N.pl3 1 <1>  -0.8380 
 40 C       -5.9590    -1.1560     1.7820 C.3   1 <1>   0.3690 
 41 H       -5.7290    -0.0900     1.6740 H     1 <1>   0.0000 
 42 H       -7.0360    -1.2500     1.9570 H     1 <1>   0.0000 
 43 H       -5.4230    -1.5100     2.6700 H     1 <1>   0.0000 
@<TRIPOS>BOND
  1   1   2  1   
  2   2   3  ar  
  3   2   9  ar  
  4   3   4  1   
  5   3   5  ar  
  6   5   6  1   
  7   5   7  ar  
  8   7   8  ar  
  9   7  39  1   
 10   8   9  ar  
 11   8  11  1   
 12   9  10  1   
 13  11  12  am  
 14  11  30  1   
 15  12  13  2   
 16  12  14  1   
 17  14  15  1   
 18  14  16  1   
 19  14  17  1   
 20  17  18  1   
 21  17  25  2   
 22  18  19  1   
 23  18  23  2   
 24  19  20  1   
 25  19  21  1   
 26  19  22  1   
 27  23  24  1   
 28  24  25  1   
 29  25  26  1   
 30  26  27  1   
 31  26  28  1   
 32  26  29  1   
 33  30  31  1   
 34  30  32  1   
 35  30  33  1   
 36  33  34  1   
 37  33  35  1   
 38  33  36  1   
 39  36  37  1   
 40  36  38  1   
 41  36  39  1   
 42  39  40  1   
 43  40  41  1   
 44  40  42  1   
 45  40  43  1   
@<TRIPOS>SUBSTRUCTURE
  1 ****  12 GROUP 4 **** **** 0

# MOE 2022.02 (io_trps.svl 2020.11)

@<TRIPOS>MOLECULE
CEP021
42 45 1 0 0 
SMALL
USER_CHARGES


@<TRIPOS>ATOM
  1 H        1.0300     1.8130    -1.9650 H     1 <1>   0.1500 
  2 C        1.1100     0.8200    -1.5280 C.ar  1 <1>  -0.1500 
  3 C       -0.0340     0.1620    -1.0800 C.ar  1 <1>  -0.1500 
  4 H       -1.0000     0.6530    -1.1720 H     1 <1>   0.1500 
  5 C        0.0570    -1.1220    -0.5240 C.ar  1 <1>  -0.1440 
  6 C        1.3180    -1.7320    -0.3930 C.ar  1 <1>   0.1170 
  7 C        2.4630    -1.0690    -0.8490 C.ar  1 <1>   0.0280 
  8 C        2.3550     0.2050    -1.4180 C.ar  1 <1>  -0.1500 
  9 H        3.2390     0.7290    -1.7750 H     1 <1>   0.1500 
 10 C        3.7650    -1.7150    -0.7260 C.2   1 <1>  -0.1780 
 11 H        4.6310    -1.1880    -1.1120 H     1 <1>   0.1500 
 12 C        3.8930    -2.9260    -0.1610 C.2   1 <1>  -0.1240 
 13 C        5.1940    -3.6750     0.0180 C.3   1 <1>   0.4080 
 14 H        5.2310    -4.1500     1.0070 H     1 <1>   0.0000 
 15 H        5.1740    -4.4910    -0.7190 H     1 <1>   0.0000 
 16 N        6.4220    -2.8770    -0.1870 N.3   1 <1>  -0.8100 
 17 C        6.7200    -2.0480     1.0050 C.3   1 <1>   0.2700 
 18 H        6.7910    -2.6760     1.9040 H     1 <1>   0.0000 
 19 H        5.9150    -1.3260     1.1770 H     1 <1>   0.0000 
 20 C        8.0380    -1.2580     0.8420 C.3   1 <1>   0.2700 
 21 H        8.2350    -0.7000     1.7640 H     1 <1>   0.0000 
 22 H        7.9300    -0.5210     0.0370 H     1 <1>   0.0000 
 23 N        9.1920    -2.1270     0.5650 N.3   1 <1>  -0.9000 
 24 H       10.0040    -1.5490     0.3550 H     1 <1>   0.3600 
 25 C        8.8940    -2.9810    -0.5950 C.3   1 <1>   0.2700 
 26 H        8.8490    -2.3650    -1.5020 H     1 <1>   0.0000 
 27 H        9.7190    -3.6890    -0.7290 H     1 <1>   0.0000 
 28 C        7.5750    -3.7680    -0.4370 C.3   1 <1>   0.2700 
 29 H        7.4070    -4.3340    -1.3610 H     1 <1>   0.0000 
 30 H        7.6840    -4.4960     0.3790 H     1 <1>   0.0000 
 31 C        2.6800    -3.6490     0.3430 C.2   1 <1>   0.6160 
 32 O        2.8070    -4.7560     0.8660 O.2   1 <1>  -0.5700 
 33 N        1.4490    -3.0190     0.1980 N.am  1 <1>  -0.4770 
 34 C        0.2570    -3.6900     0.7040 C.3   1 <1>   0.3000 
 35 H        0.1620    -3.4220     1.7640 H     1 <1>   0.0000 
 36 H        0.3970    -4.7760     0.6620 H     1 <1>   0.0000 
 37 C       -1.0060    -3.3200    -0.0570 C.3   1 <1>   0.0000 
 38 H       -1.8760    -3.8100     0.3920 H     1 <1>   0.0000 
 39 H       -0.9280    -3.6760    -1.0920 H     1 <1>   0.0000 
 40 C       -1.1900    -1.8110    -0.0430 C.3   1 <1>   0.1440 
 41 H       -2.0410    -1.5510    -0.6840 H     1 <1>   0.0000 
 42 H       -1.4160    -1.4640     0.9730 H     1 <1>   0.0000 
@<TRIPOS>BOND
  1   1   2  1   
  2   2   3  ar  
  3   2   8  ar  
  4   3   4  1   
  5   3   5  ar  
  6   5   6  ar  
  7   5  40  1   
  8   6   7  ar  
  9   6  33  1   
 10   7   8  ar  
 11   7  10  1   
 12   8   9  1   
 13  10  11  1   
 14  10  12  2   
 15  12  13  1   
 16  12  31  1   
 17  13  14  1   
 18  13  15  1   
 19  13  16  1   
 20  16  17  1   
 21  16  28  1   
 22  17  18  1   
 23  17  19  1   
 24  17  20  1   
 25  20  21  1   
 26  20  22  1   
 27  20  23  1   
 28  23  24  1   
 29  23  25  1   
 30  25  26  1   
 31  25  27  1   
 32  25  28  1   
 33  28  29  1   
 34  28  30  1   
 35  31  32  2   
 36  31  33  am  
 37  33  34  1   
 38  34  35  1   
 39  34  36  1   
 40  34  37  1   
 41  37  38  1   
 42  37  39  1   
 43  37  40  1   
 44  40  41  1   
 45  40  42  1   
@<TRIPOS>SUBSTRUCTURE
  1 ****  10 GROUP 4 **** **** 0

# MOE 2022.02 (io_trps.svl 2020.11)

@<TRIPOS>MOLECULE
CEP022
30 31 1 0 0 
SMALL
USER_CHARGES


@<TRIPOS>ATOM
  1 H        6.2770     3.3670    -0.9680 H     1 <1>   0.1500 
  2 C        5.2120     3.4640    -0.7670 C.ar  1 <1>  -0.1500 
  3 C        4.5970     4.7080    -0.8420 C.ar  1 <1>  -0.1500 
  4 H        5.1800     5.5850    -1.1160 H     1 <1>   0.1500 
  5 C        3.2280     4.8310    -0.5830 C.ar  1 <1>  -0.1500 
  6 H        2.7880     5.8150    -0.7160 H     1 <1>   0.1500 
  7 C        2.4530     3.7170    -0.2240 C.ar  1 <1>   0.1170 
  8 C        3.0800     2.4640    -0.2190 C.ar  1 <1>   0.1170 
  9 C        4.4520     2.3380    -0.4630 C.ar  1 <1>  -0.1500 
 10 H        4.9370     1.3650    -0.4370 H     1 <1>   0.1500 
 11 N        2.3550     1.3040     0.0300 N.am  1 <1>  -0.5470 
 12 H        2.8230     0.4100     0.1040 H     1 <1>   0.3700 
 13 C        1.0020     1.2730     0.1830 C.2   1 <1>   0.5690 
 14 O        0.4590     0.1840     0.3770 O.2   1 <1>  -0.5700 
 15 C        0.2140     2.5910    -0.0460 C.3   1 <1>   0.3610 
 16 C       -0.3880     2.5020    -1.4610 C.3   1 <1>   0.0000 
 17 H       -1.0390     3.3540    -1.6810 H     1 <1>   0.0000 
 18 H        0.3990     2.4840    -2.2230 H     1 <1>   0.0000 
 19 H       -0.9820     1.5890    -1.5860 H     1 <1>   0.0000 
 20 C       -0.9220     2.5650     1.0060 C.3   1 <1>   0.0000 
 21 H       -1.6670     3.3500     0.8450 H     1 <1>   0.0000 
 22 H       -1.4730     1.6170     0.9890 H     1 <1>   0.0000 
 23 H       -0.5160     2.6890     2.0160 H     1 <1>   0.0000 
 24 N        1.0530     3.8260     0.0650 N.am  1 <1>  -0.4770 
 25 C        0.4290     5.0420     0.3630 C.2   1 <1>   0.5690 
 26 O       -0.6930     5.3260    -0.0630 O.2   1 <1>  -0.5700 
 27 C        1.1530     5.9700     1.3330 C.3   1 <1>   0.3510 
 28 H        1.3620     6.9250     0.8450 H     1 <1>   0.0000 
 29 H        2.0710     5.5380     1.7320 H     1 <1>   0.0000 
 30 CL       0.0990     6.2730     2.7380 Cl    1 <1>  -0.2900 
@<TRIPOS>BOND
  1   1   2  1   
  2   2   3  ar  
  3   2   9  ar  
  4   3   4  1   
  5   3   5  ar  
  6   5   6  1   
  7   5   7  ar  
  8   7   8  ar  
  9   7  24  1   
 10   8   9  ar  
 11   8  11  1   
 12   9  10  1   
 13  11  12  1   
 14  11  13  am  
 15  13  14  2   
 16  13  15  1   
 17  15  16  1   
 18  15  20  1   
 19  15  24  1   
 20  16  17  1   
 21  16  18  1   
 22  16  19  1   
 23  20  21  1   
 24  20  22  1   
 25  20  23  1   
 26  24  25  am  
 27  25  26  2   
 28  25  27  1   
 29  27  28  1   
 30  27  29  1   
 31  27  30  1   
@<TRIPOS>SUBSTRUCTURE
  1 ****  24 GROUP 4 **** **** 0

# MOE 2022.02 (io_trps.svl 2020.11)

@<TRIPOS>MOLECULE
CEP023
30 33 1 0 0 
SMALL
USER_CHARGES


@<TRIPOS>ATOM
  1 H       -7.2960    -1.3440     2.6730 H     1 <1>   0.1500 
  2 C       -7.0540    -0.6720     1.8600 C.2   1 <1>  -0.1100 
  3 S       -6.0230     0.6630     2.1290 S.3   1 <1>  -0.0800 
  4 C       -6.1390     1.1700     0.4890 C.2   1 <1>  -0.1400 
  5 C       -5.4150     2.4060    -0.0200 C.3   1 <1>   0.3240 
  6 H       -5.6800     2.5180    -1.0830 H     1 <1>   0.0000 
  7 C       -3.8940     2.3260    -0.0050 C.ar  1 <1>  -0.1440 
  8 C       -3.1940     1.1110    -0.1060 C.ar  1 <1>  -0.1500 
  9 H       -3.7010     0.1520    -0.1360 H     1 <1>   0.1500 
 10 C       -1.8170     1.1530    -0.1820 C.ar  1 <1>   0.0820 
 11 C       -1.1260     2.3410    -0.1870 C.ar  1 <1>   0.0820 
 12 C       -1.7710     3.5550    -0.1200 C.ar  1 <1>  -0.1500 
 13 H       -1.2030     4.4780    -0.1400 H     1 <1>   0.1500 
 14 C       -3.1660     3.5400    -0.0250 C.ar  1 <1>   0.1170 
 15 N       -3.8480     4.7600     0.0020 N.am  1 <1>  -0.5470 
 16 H       -3.3470     5.6240    -0.1650 H     1 <1>   0.3700 
 17 C       -5.1880     4.8920     0.2380 C.2   1 <1>   0.5690 
 18 O       -5.7370     5.9890     0.1640 O.2   1 <1>  -0.5700 
 19 C       -5.9110     3.6580     0.7060 C.3   1 <1>   0.0610 
 20 H       -6.9860     3.7950     0.5350 H     1 <1>   0.0000 
 21 H       -5.7530     3.5940     1.7890 H     1 <1>   0.0000 
 22 O        0.2190     2.1600    -0.2800 O.3   1 <1>  -0.3630 
 23 C        0.2960     0.7190    -0.3250 C.3   1 <1>   0.5600 
 24 H        0.8930     0.3740     0.5270 H     1 <1>   0.0000 
 25 H        0.8010     0.4240    -1.2510 H     1 <1>   0.0000 
 26 O       -0.9940     0.0750    -0.2770 O.3   1 <1>  -0.3630 
 27 C       -6.9580     0.3210    -0.2350 C.2   1 <1>  -0.1500 
 28 H       -7.1720     0.4550    -1.2890 H     1 <1>   0.1500 
 29 C       -7.4840    -0.7410     0.5550 C.2   1 <1>  -0.1500 
 30 H       -8.1450    -1.5140     0.1850 H     1 <1>   0.1500 
@<TRIPOS>BOND
  1   1   2  1   
  2   2   3  1   
  3   2  29  2   
  4   3   4  1   
  5   4   5  1   
  6   4  27  2   
  7   5   6  1   
  8   5   7  1   
  9   5  19  1   
 10   7   8  ar  
 11   7  14  ar  
 12   8   9  1   
 13   8  10  ar  
 14  10  11  ar  
 15  10  26  1   
 16  11  12  ar  
 17  11  22  1   
 18  12  13  1   
 19  12  14  ar  
 20  14  15  1   
 21  15  16  1   
 22  15  17  am  
 23  17  18  2   
 24  17  19  1   
 25  19  20  1   
 26  19  21  1   
 27  22  23  1   
 28  23  24  1   
 29  23  25  1   
 30  23  26  1   
 31  27  28  1   
 32  27  29  1   
 33  29  30  1   
@<TRIPOS>SUBSTRUCTURE
  1 ****   7 GROUP 4 **** **** 0

# MOE 2022.02 (io_trps.svl 2020.11)

@<TRIPOS>MOLECULE
CEP024
30 32 1 0 0 
SMALL
USER_CHARGES


@<TRIPOS>ATOM
  1 H       -6.2570     5.6210     0.4770 H     1 <1>   0.1500 
  2 C       -5.3530     5.0450     0.6330 C.ar  1 <1>  -0.1500 
  3 C       -4.0790     5.5400     0.2950 C.ar  1 <1>  -0.1500 
  4 H       -4.0600     6.5410    -0.1340 H     1 <1>   0.1500 
  5 C       -2.8680     4.8150     0.4850 C.ar  1 <1>   0.1170 
  6 C       -2.8580     3.5080     1.0430 C.ar  1 <1>   0.1790 
  7 N       -1.6840     2.7640     1.2500 N.2   1 <1>  -0.6290 
  8 C       -0.5460     3.2990     0.9140 C.2   1 <1>   0.4500 
  9 C        0.7020     2.4870     1.1590 C.2   1 <1>   0.7200 
 10 O        1.3090     2.5170     2.2140 O.2   1 <1>  -0.5700 
 11 O        0.9830     1.7730     0.0490 O.3   1 <1>  -0.4300 
 12 C        2.1630     0.9700     0.1650 C.3   1 <1>   0.2800 
 13 H        2.0400     0.2470     0.9800 H     1 <1>   0.0000 
 14 H        3.0280     1.6100     0.3670 H     1 <1>   0.0000 
 15 C        2.3660     0.2330    -1.1450 C.3   1 <1>   0.0000 
 16 H        2.4700     0.9420    -1.9730 H     1 <1>   0.0000 
 17 H        1.5000    -0.3970    -1.3720 H     1 <1>   0.0000 
 18 H        3.2600    -0.3950    -1.1030 H     1 <1>   0.0000 
 19 C       -0.4260     4.6720     0.3020 C.2   1 <1>   0.6300 
 20 O        0.6930     5.0700     0.0030 O.2   1 <1>  -0.5700 
 21 N       -1.6100     5.3840     0.1150 N.am  1 <1>  -0.4770 
 22 C       -1.5320     6.7130    -0.4650 C.3   1 <1>   0.3000 
 23 H       -0.5000     6.9990    -0.6880 H     1 <1>   0.0000 
 24 H       -2.0960     6.7350    -1.4030 H     1 <1>   0.0000 
 25 H       -1.9360     7.4440     0.2420 H     1 <1>   0.0000 
 26 C       -4.1280     2.9590     1.4030 C.ar  1 <1>   0.2890 
 27 N       -4.3650     1.7480     1.9420 N.2   1 <1>  -0.5100 
 28 S       -6.0030     1.6270     2.1580 S.3   1 <1>   0.4410 
 29 N       -6.5000     3.1010     1.5760 N.2   1 <1>  -0.5100 
 30 C       -5.3910     3.7480     1.1900 C.ar  1 <1>   0.2890 
@<TRIPOS>BOND
  1   1   2  1   
  2   2   3  ar  
  3   2  30  ar  
  4   3   4  1   
  5   3   5  ar  
  6   5   6  ar  
  7   5  21  1   
  8   6   7  1   
  9   6  26  ar  
 10   7   8  2   
 11   8   9  1   
 12   8  19  1   
 13   9  10  2   
 14   9  11  1   
 15  11  12  1   
 16  12  13  1   
 17  12  14  1   
 18  12  15  1   
 19  15  16  1   
 20  15  17  1   
 21  15  18  1   
 22  19  20  2   
 23  19  21  am  
 24  21  22  1   
 25  22  23  1   
 26  22  24  1   
 27  22  25  1   
 28  26  27  2   
 29  26  30  ar  
 30  27  28  1   
 31  28  29  1   
 32  29  30  2   
@<TRIPOS>SUBSTRUCTURE
  1 ****   7 GROUP 4 **** **** 0

# MOE 2022.02 (io_trps.svl 2020.11)

@<TRIPOS>MOLECULE
CEP025
29 31 1 0 0 
SMALL
USER_CHARGES


@<TRIPOS>ATOM
  1 H      -10.2870     0.5760     0.1300 H     1 <1>   0.1500 
  2 C       -9.3160     0.0850     0.1060 C.ar  1 <1>  -0.1500 
  3 C       -9.2550    -1.3220     0.0190 C.ar  1 <1>  -0.1500 
  4 H      -10.1800    -1.8950    -0.0230 H     1 <1>   0.1500 
  5 C       -8.0270    -1.9920    -0.0130 C.ar  1 <1>  -0.1500 
  6 H       -7.9860    -3.0730    -0.0790 H     1 <1>   0.1500 
  7 C       -6.8880    -1.2170     0.0440 C.ar  1 <1>   0.1170 
  8 C       -6.9460     0.1920     0.1290 C.ar  1 <1>   0.1000 
  9 C       -8.1510     0.8570     0.1620 C.ar  1 <1>  -0.1500 
 10 H       -8.1930     1.9380     0.2310 H     1 <1>   0.1500 
 11 N       -5.6270     0.6710     0.1680 N.pl3 1 <1>  -0.1610 
 12 N       -5.2340     1.9950     0.2380 N.3   1 <1>  -0.7090 
 13 H       -4.4260     2.0550     0.8650 H     1 <1>   0.3600 
 14 H       -4.8590     2.2690    -0.6720 H     1 <1>   0.3600 
 15 C       -4.7590    -0.4120     0.1060 C.2   1 <1>   0.5600 
 16 N       -3.4670    -0.4130     0.1130 N.2   1 <1>  -0.6210 
 17 C       -2.8430    -1.6470     0.0430 C.2   1 <1>   0.1850 
 18 C       -1.3320    -1.6480     0.0540 C.2   1 <1>   0.7060 
 19 O       -0.6530    -0.6320     0.1270 O.2   1 <1>  -0.5700 
 20 O       -0.8290    -2.9100    -0.0270 O.3   1 <1>  -0.4300 
 21 C        0.5980    -2.9700    -0.0190 C.3   1 <1>   0.2800 
 22 H        0.8930    -4.0200    -0.0930 H     1 <1>   0.0000 
 23 H        0.9930    -2.5650     0.9190 H     1 <1>   0.0000 
 24 H        1.0100    -2.4330    -0.8790 H     1 <1>   0.0000 
 25 C       -3.4990    -2.8180    -0.0310 C.2   1 <1>  -0.1360 
 26 H       -3.0230    -3.7880    -0.0850 H     1 <1>   0.1500 
 27 C       -4.9760    -2.8260    -0.0410 C.2   1 <1>   0.6160 
 28 O       -5.5760    -3.8930    -0.1110 O.2   1 <1>  -0.5700 
 29 N       -5.5230    -1.5780     0.0310 N.am  1 <1>  -0.2370 
@<TRIPOS>BOND
  1   1   2  1   
  2   2   3  ar  
  3   2   9  ar  
  4   3   4  1   
  5   3   5  ar  
  6   5   6  1   
  7   5   7  ar  
  8   7   8  ar  
  9   7  29  1   
 10   8   9  ar  
 11   8  11  1   
 12   9  10  1   
 13  11  12  1   
 14  11  15  1   
 15  12  13  1   
 16  12  14  1   
 17  15  16  2   
 18  15  29  1   
 19  16  17  1   
 20  17  18  1   
 21  17  25  2   
 22  18  19  2   
 23  18  20  1   
 24  20  21  1   
 25  21  22  1   
 26  21  23  1   
 27  21  24  1   
 28  25  26  1   
 29  25  27  1   
 30  27  28  2   
 31  27  29  am  
@<TRIPOS>SUBSTRUCTURE
  1 ****  29 GROUP 4 **** **** 0

# MOE 2022.02 (io_trps.svl 2020.11)

@<TRIPOS>MOLECULE
CEP026
32 34 1 0 0 
SMALL
USER_CHARGES


@<TRIPOS>ATOM
  1 H       12.9900    -3.0030    -1.4060 H     1 <1>   0.4000 
  2 O       12.0640    -3.2890    -1.4940 O.3   1 <1>  -0.6800 
  3 C       11.3770    -2.8310    -0.3310 C.3   1 <1>   0.2800 
  4 H       11.4260    -1.7370    -0.3240 H     1 <1>   0.0000 
  5 H       11.8990    -3.2200     0.5500 H     1 <1>   0.0000 
  6 C        9.9330    -3.3210    -0.3730 C.3   1 <1>   0.2300 
  7 H        9.9190    -4.4160    -0.3680 H     1 <1>   0.0000 
  8 H        9.4600    -3.0010    -1.3090 H     1 <1>   0.0000 
  9 S        8.9990    -2.6550     1.0400 S.3   1 <1>  -0.3310 
 10 C        7.4480    -3.3950     0.7350 C.2   1 <1>   0.1150 
 11 C        6.3730    -2.7110     0.2780 C.2   1 <1>  -0.1670 
 12 C        6.3770    -1.2340    -0.0430 C.3   1 <1>   0.1380 
 13 H        7.3370    -0.7410     0.1240 H     1 <1>   0.0000 
 14 H        5.6470    -0.7050     0.5800 H     1 <1>   0.0000 
 15 H        6.1290    -1.0710    -1.0980 H     1 <1>   0.0000 
 16 C        5.0870    -3.4380     0.0690 C.ar  1 <1>   0.0280 
 17 C        3.9260    -2.8070    -0.4140 C.ar  1 <1>  -0.1500 
 18 H        3.8930    -1.7540    -0.6670 H     1 <1>   0.1500 
 19 C        2.7780    -3.5600    -0.5710 C.ar  1 <1>   0.0820 
 20 C        2.7390    -4.8980    -0.2710 C.ar  1 <1>   0.0820 
 21 C        3.8460    -5.5620     0.2030 C.ar  1 <1>  -0.1500 
 22 H        3.7930    -6.6200     0.4330 H     1 <1>   0.1500 
 23 C        5.0210    -4.8200     0.3690 C.ar  1 <1>   0.1170 
 24 N        6.1560    -5.4760     0.8430 N.am  1 <1>  -0.5470 
 25 H        6.1270    -6.4630     1.0600 H     1 <1>   0.3700 
 26 C        7.3620    -4.8690     1.0470 C.2   1 <1>   0.6160 
 27 O        8.3120    -5.5310     1.4600 O.2   1 <1>  -0.5700 
 28 O        1.5160    -5.4470    -0.4960 O.3   1 <1>  -0.3630 
 29 C        0.7870    -4.2990    -0.9790 C.3   1 <1>   0.5600 
 30 H        0.4200    -4.5160    -1.9890 H     1 <1>   0.0000 
 31 H       -0.0720    -4.1260    -0.3210 H     1 <1>   0.0000 
 32 O        1.5830    -3.0960    -1.0250 O.3   1 <1>  -0.3630 
@<TRIPOS>BOND
  1   1   2  1   
  2   2   3  1   
  3   3   4  1   
  4   3   5  1   
  5   3   6  1   
  6   6   7  1   
  7   6   8  1   
  8   6   9  1   
  9   9  10  1   
 10  10  11  2   
 11  10  26  1   
 12  11  12  1   
 13  11  16  1   
 14  12  13  1   
 15  12  14  1   
 16  12  15  1   
 17  16  17  ar  
 18  16  23  ar  
 19  17  18  1   
 20  17  19  ar  
 21  19  20  ar  
 22  19  32  1   
 23  20  21  ar  
 24  20  28  1   
 25  21  22  1   
 26  21  23  ar  
 27  23  24  1   
 28  24  25  1   
 29  24  26  am  
 30  26  27  2   
 31  28  29  1   
 32  29  30  1   
 33  29  31  1   
 34  29  32  1   
@<TRIPOS>SUBSTRUCTURE
  1 ****  16 GROUP 4 **** **** 0

# MOE 2022.02 (io_trps.svl 2020.11)

@<TRIPOS>MOLECULE
CEP027
32 35 1 0 0 
SMALL
USER_CHARGES


@<TRIPOS>ATOM
  1 H        0.9330    -1.8440     1.0260 H     1 <1>   0.1500 
  2 C        0.0630    -2.3960     0.6780 C.ar  1 <1>  -0.1500 
  3 C        0.1580    -3.7650     0.4350 C.ar  1 <1>  -0.1500 
  4 H        1.1030    -4.2800     0.5920 H     1 <1>   0.1500 
  5 C       -0.9570    -4.4730    -0.0130 C.ar  1 <1>  -0.1500 
  6 H       -0.8710    -5.5390    -0.2030 H     1 <1>   0.1500 
  7 C       -2.1640    -3.8010    -0.2130 C.ar  1 <1>   0.1170 
  8 C       -2.2770    -2.4280     0.0260 C.ar  1 <1>   0.0280 
  9 C       -1.1490    -1.7290     0.4750 C.ar  1 <1>  -0.1500 
 10 H       -1.1970    -0.6600     0.6720 H     1 <1>   0.1500 
 11 C       -3.5830    -1.7890    -0.1940 C.2   1 <1>   0.0480 
 12 C       -4.6610    -2.4880    -0.5910 C.2   1 <1>  -0.1240 
 13 C       -4.5000    -3.9410    -0.9090 C.2   1 <1>   0.6160 
 14 O       -5.4040    -4.6200    -1.3840 O.2   1 <1>  -0.5700 
 15 N       -3.2760    -4.5050    -0.6770 N.am  1 <1>  -0.5470 
 16 H       -3.2070    -5.4940    -0.8750 H     1 <1>   0.3700 
 17 C       -5.9990    -1.8040    -0.7680 C.3   1 <1>   0.2330 
 18 H       -6.0640    -1.5390    -1.8330 H     1 <1>   0.0000 
 19 C       -7.2290    -2.6510    -0.4710 C.3   1 <1>  -0.1950 
 20 H       -7.4600    -3.2970    -1.3160 H     1 <1>   0.1000 
 21 C       -8.4230    -2.2040     0.3470 C.3   1 <1>  -0.2000 
 22 H       -9.4030    -2.5510     0.0340 H     1 <1>   0.1000 
 23 H       -8.4490    -1.2290     0.8160 H     1 <1>   0.1000 
 24 C       -7.4710    -3.2230     0.9070 C.3   1 <1>  -0.2000 
 25 H       -6.8290    -2.9250     1.7270 H     1 <1>   0.1000 
 26 H       -7.8000    -4.2550     0.9660 H     1 <1>   0.1000 
 27 C       -6.0110    -0.4960     0.0270 C.3   1 <1>   0.0610 
 28 H       -6.1310    -0.6660     1.1040 H     1 <1>   0.0000 
 29 H       -6.8530     0.1240    -0.3050 H     1 <1>   0.0000 
 30 C       -4.7570     0.3070    -0.1460 C.2   1 <1>   0.6590 
 31 O       -4.7700     1.5290    -0.2630 O.2   1 <1>  -0.5700 
 32 O       -3.5930    -0.3890    -0.0360 O.3   1 <1>  -0.2270 
@<TRIPOS>BOND
  1   1   2  1   
  2   2   3  ar  
  3   2   9  ar  
  4   3   4  1   
  5   3   5  ar  
  6   5   6  1   
  7   5   7  ar  
  8   7   8  ar  
  9   7  15  1   
 10   8   9  ar  
 11   8  11  1   
 12   9  10  1   
 13  11  12  2   
 14  11  32  1   
 15  12  13  1   
 16  12  17  1   
 17  13  14  2   
 18  13  15  am  
 19  15  16  1   
 20  17  18  1   
 21  17  19  1   
 22  17  27  1   
 23  19  20  1   
 24  19  21  1   
 25  19  24  1   
 26  21  22  1   
 27  21  23  1   
 28  21  24  1   
 29  24  25  1   
 30  24  26  1   
 31  27  28  1   
 32  27  29  1   
 33  27  30  1   
 34  30  31  2   
 35  30  32  1   
@<TRIPOS>SUBSTRUCTURE
  1 ****  11 GROUP 4 **** **** 0

# MOE 2022.02 (io_trps.svl 2020.11)

@<TRIPOS>MOLECULE
CEP028
39 41 1 0 0 
SMALL
USER_CHARGES


@<TRIPOS>ATOM
  1 H       -1.8280    -0.7880    -1.4410 H     1 <1>   0.1500 
  2 C       -1.2140     0.1080    -1.3680 C.ar  1 <1>  -0.1500 
  3 C        0.1180     0.0570    -1.7880 C.ar  1 <1>  -0.1500 
  4 H        0.4890    -0.8920    -2.1620 H     1 <1>   0.1500 
  5 C        0.9110     1.2070    -1.7220 C.ar  1 <1>  -0.0230 
  6 N        2.2630     1.1790    -2.1460 N.pl3 1 <1>   0.5930 
  7 N        3.0740     2.2610    -2.0980 N.2   1 <1>  -0.4180 
  8 N        4.2480     1.8630    -2.5680 N.2   1 <1>   0.0000 
  9 N        4.2140     0.5410    -2.9220 N.2   1 <1>  -0.3380 
 10 C        2.9930     0.1350    -2.6580 C.2   1 <1>   0.0370 
 11 H        2.6120    -0.8610    -2.8150 H     1 <1>   0.1500 
 12 C        0.3640     2.4010    -1.2240 C.ar  1 <1>  -0.1500 
 13 H        0.9870     3.2890    -1.1550 H     1 <1>   0.1500 
 14 C       -0.9690     2.4450    -0.7980 C.ar  1 <1>   0.1170 
 15 N       -1.5630     3.5880    -0.2200 N.am  1 <1>  -0.5470 
 16 H       -2.5060     3.4160     0.1100 H     1 <1>   0.3700 
 17 C       -1.0330     4.8520    -0.0550 C.2   1 <1>   0.5690 
 18 O        0.0760     5.2290    -0.4110 O.2   1 <1>  -0.5700 
 19 C       -2.0200     5.7750     0.6420 C.3   1 <1>   0.0610 
 20 H       -2.2770     5.3380     1.6140 H     1 <1>   0.0000 
 21 H       -2.9350     5.8230     0.0400 H     1 <1>   0.0000 
 22 C       -1.4710     7.1760     0.8450 C.3   1 <1>   0.0000 
 23 H       -0.5640     7.1580     1.4580 H     1 <1>   0.0000 
 24 H       -2.2110     7.8060     1.3470 H     1 <1>   0.0000 
 25 H       -1.2200     7.6420    -0.1140 H     1 <1>   0.0000 
 26 C       -1.7840     1.2930    -0.8850 C.ar  1 <1>   0.1000 
 27 N       -3.1120     1.3020    -0.5300 N.pl3 1 <1>  -0.8380 
 28 C       -4.1550     1.9120    -1.3430 C.3   1 <1>   0.3690 
 29 H       -4.1390     3.0030    -1.2560 H     1 <1>   0.0000 
 30 H       -4.0710     1.6380    -2.4000 H     1 <1>   0.0000 
 31 C       -5.4380     1.3450    -0.7350 C.3   1 <1>   0.0000 
 32 H       -6.2920     2.0170    -0.8570 H     1 <1>   0.0000 
 33 H       -5.6860     0.3870    -1.2080 H     1 <1>   0.0000 
 34 C       -5.0670     1.1180     0.7260 C.3   1 <1>   0.0000 
 35 H       -5.1060     2.0690     1.2710 H     1 <1>   0.0000 
 36 H       -5.7280     0.4070     1.2280 H     1 <1>   0.0000 
 37 C       -3.6240     0.6200     0.6480 C.3   1 <1>   0.3690 
 38 H       -3.5970    -0.4660     0.5030 H     1 <1>   0.0000 
 39 H       -3.0670     0.8780     1.5540 H     1 <1>   0.0000 
@<TRIPOS>BOND
  1   1   2  1   
  2   2   3  ar  
  3   2  26  ar  
  4   3   4  1   
  5   3   5  ar  
  6   5   6  1   
  7   5  12  ar  
  8   6   7  1   
  9   6  10  1   
 10   7   8  2   
 11   8   9  1   
 12   9  10  2   
 13  10  11  1   
 14  12  13  1   
 15  12  14  ar  
 16  14  15  1   
 17  14  26  ar  
 18  15  16  1   
 19  15  17  am  
 20  17  18  2   
 21  17  19  1   
 22  19  20  1   
 23  19  21  1   
 24  19  22  1   
 25  22  23  1   
 26  22  24  1   
 27  22  25  1   
 28  26  27  1   
 29  27  28  1   
 30  27  37  1   
 31  28  29  1   
 32  28  30  1   
 33  28  31  1   
 34  31  32  1   
 35  31  33  1   
 36  31  34  1   
 37  34  35  1   
 38  34  36  1   
 39  34  37  1   
 40  37  38  1   
 41  37  39  1   
@<TRIPOS>SUBSTRUCTURE
  1 ****  14 GROUP 4 **** **** 0

# MOE 2022.02 (io_trps.svl 2020.11)

@<TRIPOS>MOLECULE
CEP029
36 38 1 0 0 
SMALL
USER_CHARGES


@<TRIPOS>ATOM
  1 H        3.4380     2.7130    -0.7420 H     1 <1>   0.4500 
  2 O        2.5550     2.3080    -0.7830 O.3   1 <1>  -0.5320 
  3 C        2.6260     1.1210    -0.0910 C.2   1 <1>   0.0600 
  4 C        1.4880     0.2870    -0.0880 C.2   1 <1>  -0.1440 
  5 C        1.4690    -1.0740     0.3850 C.2   1 <1>  -0.1440 
  6 C        2.6040    -1.9050     0.4790 C.2   1 <1>   0.0600 
  7 O        2.4800    -3.0950     1.1590 O.3   1 <1>  -0.5320 
  8 H        3.3630    -3.5030     1.1830 H     1 <1>   0.4500 
  9 N        3.6940    -1.7290    -0.3640 N.pl3 1 <1>  -0.2240 
 10 H        3.6740    -2.2210    -1.2500 H     1 <1>   0.2700 
 11 C        4.8300    -1.0000    -0.0390 C.ar  1 <1>  -0.0230 
 12 C        6.0630    -1.5790    -0.3690 C.ar  1 <1>  -0.1500 
 13 H        6.0930    -2.5150    -0.9250 H     1 <1>   0.1500 
 14 C        7.2510    -0.9790     0.0700 C.ar  1 <1>   0.1330 
 15 N        8.5410    -1.6020    -0.2520 N.pl3 1 <1>   0.9070 
 16 O        9.5710    -1.0230     0.1230 O.2   1 <1>  -0.5200 
 17 O        8.5250    -2.6700    -0.8790 O.2   1 <1>  -0.5200 
 18 C        7.2190     0.1930     0.8320 C.ar  1 <1>  -0.1500 
 19 H        8.1330     0.6630     1.1900 H     1 <1>   0.1500 
 20 C        5.9890     0.7880     1.1210 C.ar  1 <1>  -0.1500 
 21 H        5.9790     1.7240     1.6780 H     1 <1>   0.1500 
 22 C        4.7950     0.2190     0.6520 C.ar  1 <1>  -0.0230 
 23 N        3.6380     0.9600     0.8490 N.pl3 1 <1>  -0.2240 
 24 H        3.5420     1.4770     1.7150 H     1 <1>   0.2700 
 25 C        0.1370    -1.6550     0.8570 C.3   1 <1>   0.1440 
 26 H        0.0200    -1.4020     1.9190 H     1 <1>   0.0000 
 27 H        0.1380    -2.7480     0.7800 H     1 <1>   0.0000 
 28 C       -1.0650    -1.1530     0.0670 C.3   1 <1>   0.0000 
 29 H       -1.9890    -1.5140     0.5330 H     1 <1>   0.0000 
 30 H       -1.0390    -1.5570    -0.9530 H     1 <1>   0.0000 
 31 C       -1.0640     0.3620     0.0190 C.3   1 <1>   0.0000 
 32 H       -1.9470     0.7210    -0.5220 H     1 <1>   0.0000 
 33 H       -1.1220     0.7660     1.0380 H     1 <1>   0.0000 
 34 C        0.1980     0.8660    -0.6690 C.3   1 <1>   0.1440 
 35 H        0.1910     1.9590    -0.5920 H     1 <1>   0.0000 
 36 H        0.1700     0.6140    -1.7370 H     1 <1>   0.0000 
@<TRIPOS>BOND
  1   1   2  1   
  2   2   3  1   
  3   3   4  2   
  4   3  23  1   
  5   4   5  1   
  6   4  34  1   
  7   5   6  2   
  8   5  25  1   
  9   6   7  1   
 10   6   9  1   
 11   7   8  1   
 12   9  10  1   
 13   9  11  1   
 14  11  12  ar  
 15  11  22  ar  
 16  12  13  1   
 17  12  14  ar  
 18  14  15  1   
 19  14  18  ar  
 20  15  16  2   
 21  15  17  2   
 22  18  19  1   
 23  18  20  ar  
 24  20  21  1   
 25  20  22  ar  
 26  22  23  1   
 27  23  24  1   
 28  25  26  1   
 29  25  27  1   
 30  25  28  1   
 31  28  29  1   
 32  28  30  1   
 33  28  31  1   
 34  31  32  1   
 35  31  33  1   
 36  31  34  1   
 37  34  35  1   
 38  34  36  1   
@<TRIPOS>SUBSTRUCTURE
  1 ****  11 GROUP 4 **** **** 0

# MOE 2022.02 (io_trps.svl 2020.11)

@<TRIPOS>MOLECULE
CEP030
43 45 1 0 0 
SMALL
USER_CHARGES


@<TRIPOS>ATOM
  1 H       -3.1700    -7.4140    -3.6780 H     1 <1>   0.1500 
  2 C       -2.5140    -7.0060    -2.9140 C.ar  1 <1>  -0.1500 
  3 C       -1.2500    -7.5340    -2.7180 C.ar  1 <1>  -0.1500 
  4 H       -0.8970    -8.3570    -3.3350 H     1 <1>   0.1500 
  5 C       -0.4220    -7.0040    -1.7240 C.ar  1 <1>  -0.1500 
  6 H        0.5680    -7.4440    -1.6370 H     1 <1>   0.1500 
  7 C       -0.8280    -5.9280    -0.9050 C.ar  1 <1>   0.1170 
  8 C       -2.1250    -5.3970    -1.1100 C.ar  1 <1>   0.1790 
  9 C       -2.9430    -5.9530    -2.1120 C.ar  1 <1>  -0.1500 
 10 H       -3.9470    -5.5560    -2.2520 H     1 <1>   0.1500 
 11 N       -2.7660    -4.4030    -0.3450 N.2   1 <1>  -0.6290 
 12 C       -2.1270    -3.3500     0.0320 C.2   1 <1>   0.3280 
 13 C       -2.8350    -2.2270     0.7310 C.3   1 <1>   0.0610 
 14 H       -3.8540    -2.0900     0.3630 H     1 <1>   0.0000 
 15 H       -2.8430    -2.4240     1.8080 H     1 <1>   0.0000 
 16 C       -1.9210    -1.0690     0.3730 C.3   1 <1>   0.0000 
 17 H       -2.0260    -0.2290     1.0650 H     1 <1>   0.0000 
 18 H       -2.1440    -0.7070    -0.6380 H     1 <1>   0.0000 
 19 C       -0.5230    -1.6780     0.4090 C.3   1 <1>   0.0000 
 20 H        0.1900    -1.0800    -0.1690 H     1 <1>   0.0000 
 21 H       -0.1680    -1.6900     1.4460 H     1 <1>   0.0000 
 22 C       -0.6720    -3.0930    -0.1780 C.3   1 <1>   0.1220 
 23 H       -0.4380    -3.0870    -1.2480 H     1 <1>   0.0000 
 24 C        0.1560    -4.1290     0.5440 C.2   1 <1>   0.5690 
 25 O        0.9500    -3.7990     1.4340 O.2   1 <1>  -0.5700 
 26 N        0.0810    -5.4470     0.1020 N.am  1 <1>  -0.4770 
 27 C        1.0060    -6.4000     0.7340 C.3   1 <1>   0.3610 
 28 H        0.6210    -7.4240     0.6760 H     1 <1>   0.0000 
 29 H        1.0880    -6.1710     1.8040 H     1 <1>   0.0000 
 30 C        2.4140    -6.3380     0.1270 C.2   1 <1>   0.5690 
 31 O        2.8390    -7.2170    -0.6190 O.2   1 <1>  -0.5700 
 32 N        3.1330    -5.2170     0.4830 N.am  1 <1>  -0.7300 
 33 H        2.6660    -4.5400     1.0900 H     1 <1>   0.3700 
 34 C        4.4880    -4.9160     0.0470 C.3   1 <1>   0.3000 
 35 H        4.7450    -3.9740     0.5480 H     1 <1>   0.0000 
 36 C        4.5620    -4.6750    -1.4580 C.3   1 <1>   0.0000 
 37 H        5.5620    -4.3350    -1.7470 H     1 <1>   0.0000 
 38 H        4.3390    -5.5820    -2.0290 H     1 <1>   0.0000 
 39 H        3.8430    -3.9070    -1.7630 H     1 <1>   0.0000 
 40 C        5.4950    -5.9690     0.5010 C.3   1 <1>   0.0000 
 41 H        5.4250    -6.1310     1.5830 H     1 <1>   0.0000 
 42 H        5.3290    -6.9330     0.0100 H     1 <1>   0.0000 
 43 H        6.5170    -5.6500     0.2720 H     1 <1>   0.0000 
@<TRIPOS>BOND
  1   1   2  1   
  2   2   3  ar  
  3   2   9  ar  
  4   3   4  1   
  5   3   5  ar  
  6   5   6  1   
  7   5   7  ar  
  8   7   8  ar  
  9   7  26  1   
 10   8   9  ar  
 11   8  11  1   
 12   9  10  1   
 13  11  12  2   
 14  12  13  1   
 15  12  22  1   
 16  13  14  1   
 17  13  15  1   
 18  13  16  1   
 19  16  17  1   
 20  16  18  1   
 21  16  19  1   
 22  19  20  1   
 23  19  21  1   
 24  19  22  1   
 25  22  23  1   
 26  22  24  1   
 27  24  25  2   
 28  24  26  am  
 29  26  27  1   
 30  27  28  1   
 31  27  29  1   
 32  27  30  1   
 33  30  31  2   
 34  30  32  am  
 35  32  33  1   
 36  32  34  1   
 37  34  35  1   
 38  34  36  1   
 39  34  40  1   
 40  36  37  1   
 41  36  38  1   
 42  36  39  1   
 43  40  41  1   
 44  40  42  1   
 45  40  43  1   
@<TRIPOS>SUBSTRUCTURE
  1 ****  26 GROUP 4 **** **** 0

# MOE 2022.02 (io_trps.svl 2020.11)

@<TRIPOS>MOLECULE
CEP031
32 33 1 0 0 
SMALL
USER_CHARGES


@<TRIPOS>ATOM
  1 H       13.5670     3.1440     0.1760 H     1 <1>   0.5000 
  2 O       12.7860     3.7120     0.0050 O.3   1 <1>  -0.6500 
  3 C       11.7320     2.8810     0.1300 C.2   1 <1>   0.6590 
  4 O       11.8970     1.7050     0.3990 O.2   1 <1>  -0.5700 
  5 C       10.4340     3.5930    -0.1050 C.3   1 <1>   0.0610 
  6 H       10.4430     4.0150    -1.1160 H     1 <1>   0.0000 
  7 H       10.3480     4.4130     0.6170 H     1 <1>   0.0000 
  8 C        9.2600     2.6400     0.0490 C.3   1 <1>   0.3000 
  9 H        9.3240     1.8190    -0.6740 H     1 <1>   0.0000 
 10 H        9.2480     2.1940     1.0510 H     1 <1>   0.0000 
 11 N        7.9900     3.3150    -0.1630 N.am  1 <1>  -0.7300 
 12 H        7.9990     4.2510    -0.5330 H     1 <1>   0.3700 
 13 C        6.7950     2.6710     0.0880 C.2   1 <1>   0.6900 
 14 O        6.7980     1.4810     0.3950 O.2   1 <1>  -0.5700 
 15 N        5.6540     3.4750    -0.0220 N.am  1 <1>  -0.4770 
 16 C        4.3280     2.9260    -0.1380 C.ar  1 <1>   0.1170 
 17 C        4.0900     1.5710    -0.4130 C.ar  1 <1>  -0.1500 
 18 H        4.9020     0.8680    -0.5760 H     1 <1>   0.1500 
 19 C        2.7890     1.0620    -0.5130 C.ar  1 <1>  -0.1500 
 20 H        2.6410     0.0050    -0.7240 H     1 <1>   0.1500 
 21 C        1.6940     1.9000    -0.3450 C.ar  1 <1>  -0.1500 
 22 H        0.6850     1.5020    -0.4190 H     1 <1>   0.1500 
 23 C        1.8990     3.2510    -0.0850 C.ar  1 <1>  -0.1500 
 24 H        1.0370     3.9000     0.0400 H     1 <1>   0.1500 
 25 C        3.2020     3.7600     0.0080 C.ar  1 <1>   0.1170 
 26 N        3.3370     5.1250     0.2680 N.am  1 <1>  -0.5470 
 27 H        2.5210     5.7010     0.4270 H     1 <1>   0.3700 
 28 C        4.5390     5.7590     0.3240 C.2   1 <1>   0.5690 
 29 O        4.6020     6.9690     0.5380 O.2   1 <1>  -0.5700 
 30 C        5.7670     4.9350    -0.0050 C.3   1 <1>   0.3610 
 31 H        6.5340     5.2160     0.7270 H     1 <1>   0.0000 
 32 H        6.1070     5.2450    -1.0000 H     1 <1>   0.0000 
@<TRIPOS>BOND
  1   1   2  1   
  2   2   3  1   
  3   3   4  2   
  4   3   5  1   
  5   5   6  1   
  6   5   7  1   
  7   5   8  1   
  8   8   9  1   
  9   8  10  1   
 10   8  11  1   
 11  11  12  1   
 12  11  13  am  
 13  13  14  2   
 14  13  15  am  
 15  15  16  1   
 16  15  30  1   
 17  16  17  ar  
 18  16  25  ar  
 19  17  18  1   
 20  17  19  ar  
 21  19  20  1   
 22  19  21  ar  
 23  21  22  1   
 24  21  23  ar  
 25  23  24  1   
 26  23  25  ar  
 27  25  26  1   
 28  26  27  1   
 29  26  28  am  
 30  28  29  2   
 31  28  30  1   
 32  30  31  1   
 33  30  32  1   
@<TRIPOS>SUBSTRUCTURE
  1 ****  15 GROUP 4 **** **** 0

# MOE 2022.02 (io_trps.svl 2020.11)

@<TRIPOS>MOLECULE
CEP032
30 32 1 0 0 
SMALL
USER_CHARGES


@<TRIPOS>ATOM
  1 H       -0.3990     1.4680    -0.6970 H     1 <1>   0.1500 
  2 C       -0.5020     0.4370    -0.3860 C.ar  1 <1>  -0.1500 
  3 C        0.6850    -0.2860    -0.2520 C.ar  1 <1>   0.0820 
  4 C        0.6470    -1.6390     0.0570 C.ar  1 <1>   0.0820 
  5 C       -0.5770    -2.2680     0.2630 C.ar  1 <1>  -0.1500 
  6 H       -0.5450    -3.3280     0.4990 H     1 <1>   0.1500 
  7 C       -1.7840    -1.5490     0.1420 C.ar  1 <1>  -0.0230 
  8 N       -3.0030    -2.2580     0.3440 N.pl3 1 <1>   0.5930 
  9 N       -4.2250    -1.6900     0.2010 N.2   1 <1>  -0.4180 
 10 N       -5.1120    -2.6390     0.4560 N.2   1 <1>   0.0000 
 11 N       -4.4950    -3.8170     0.7660 N.2   1 <1>  -0.3380 
 12 C       -3.2060    -3.5730     0.6960 C.2   1 <1>   0.0370 
 13 H       -2.4240    -4.2900     0.8860 H     1 <1>   0.1500 
 14 C       -1.7520    -0.1590    -0.1680 C.ar  1 <1>   0.1170 
 15 N       -2.9540     0.5770    -0.2890 N.am  1 <1>  -0.5470 
 16 H       -3.8110     0.0230    -0.3410 H     1 <1>   0.3700 
 17 C       -3.2630     1.9040    -0.3460 C.2   1 <1>   0.5690 
 18 O       -4.4250     2.2240    -0.6150 O.2   1 <1>  -0.5700 
 19 C       -2.2490     2.9690    -0.0490 C.3   1 <1>   0.0610 
 20 H       -1.6050     2.6830     0.7850 H     1 <1>   0.0000 
 21 H       -1.6660     3.1910    -0.9460 H     1 <1>   0.0000 
 22 H       -2.7730     3.8840     0.2480 H     1 <1>   0.0000 
 23 O        1.7670    -2.4190     0.1730 O.3   1 <1>  -0.3630 
 24 C        2.9170    -1.7770    -0.3930 C.3   1 <1>   0.2800 
 25 H        3.8030    -2.3170    -0.0450 H     1 <1>   0.0000 
 26 H        2.8650    -1.8710    -1.4840 H     1 <1>   0.0000 
 27 C        2.9850    -0.3200     0.0360 C.3   1 <1>   0.2800 
 28 H        3.0090    -0.2240     1.1290 H     1 <1>   0.0000 
 29 H        3.8850     0.1530    -0.3690 H     1 <1>   0.0000 
 30 O        1.8520     0.4040    -0.4590 O.3   1 <1>  -0.3630 
@<TRIPOS>BOND
  1   1   2  1   
  2   2   3  ar  
  3   2  14  ar  
  4   3   4  ar  
  5   3  30  1   
  6   4   5  ar  
  7   4  23  1   
  8   5   6  1   
  9   5   7  ar  
 10   7   8  1   
 11   7  14  ar  
 12   8   9  1   
 13   8  12  1   
 14   9  10  2   
 15  10  11  1   
 16  11  12  2   
 17  12  13  1   
 18  14  15  1   
 19  15  16  1   
 20  15  17  am  
 21  17  18  2   
 22  17  19  1   
 23  19  20  1   
 24  19  21  1   
 25  19  22  1   
 26  23  24  1   
 27  24  25  1   
 28  24  26  1   
 29  24  27  1   
 30  27  28  1   
 31  27  29  1   
 32  27  30  1   
@<TRIPOS>SUBSTRUCTURE
  1 ****  14 GROUP 4 **** **** 0

# MOE 2022.02 (io_trps.svl 2020.11)

@<TRIPOS>MOLECULE
CEP033
37 38 1 0 0 
SMALL
USER_CHARGES


@<TRIPOS>ATOM
  1 H       -2.6290    -2.3210     2.6870 H     1 <1>   0.1500 
  2 C       -1.7150    -2.8400     2.4300 C.2   1 <1>  -0.3000 
  3 H       -1.0650    -3.1000     3.2600 H     1 <1>   0.1500 
  4 C       -1.3900    -3.1380     1.1590 C.2   1 <1>   0.1000 
  5 C       -0.1420    -3.8470     0.9600 C.2   1 <1>   0.0140 
  6 C        0.1460    -5.1510     1.1260 C.2   1 <1>  -0.0380 
  7 C       -0.7750    -6.2470     1.5380 C.3   1 <1>   0.1380 
  8 H       -0.7950    -7.0330     0.7760 H     1 <1>   0.0000 
  9 H       -1.8020    -5.8970     1.6790 H     1 <1>   0.0000 
 10 H       -0.4390    -6.6900     2.4810 H     1 <1>   0.0000 
 11 N        1.4630    -5.4100     0.8480 N.pl3 1 <1>  -0.5200 
 12 H        1.8820    -6.3270     0.9070 H     1 <1>   0.4000 
 13 N        2.1010    -4.2450     0.4870 N.am  1 <1>  -0.1570 
 14 C        3.4710    -4.1970     0.1430 C.ar  1 <1>   0.1170 
 15 C        4.2710    -5.3530     0.1530 C.ar  1 <1>  -0.1500 
 16 H        3.8660    -6.3210     0.4270 H     1 <1>   0.1500 
 17 C        5.6300    -5.3030    -0.1910 C.ar  1 <1>  -0.1500 
 18 H        6.2150    -6.2210    -0.1700 H     1 <1>   0.1500 
 19 C        6.2080    -4.0820    -0.5520 C.ar  1 <1>   0.1330 
 20 N        7.6290    -4.0230    -0.9130 N.pl3 1 <1>   0.9070 
 21 O        8.0990    -2.9210    -1.2300 O.2   1 <1>  -0.5200 
 22 O        8.2760    -5.0800    -0.8790 O.2   1 <1>  -0.5200 
 23 C        5.4350    -2.9200    -0.5700 C.ar  1 <1>  -0.1500 
 24 H        5.8610    -1.9570    -0.8470 H     1 <1>   0.1500 
 25 C        4.0790    -2.9850    -0.2240 C.ar  1 <1>  -0.1500 
 26 H        3.5130    -2.0560    -0.2500 H     1 <1>   0.1500 
 27 C        1.1530    -3.2060     0.5370 C.2   1 <1>   0.6160 
 28 O        1.2920    -2.0160     0.2990 O.2   1 <1>  -0.5700 
 29 N       -2.1920    -2.8260     0.0500 N.pl3 1 <1>  -0.8380 
 30 C       -1.8270    -3.2170    -1.3150 C.3   1 <1>   0.3690 
 31 H       -2.6570    -3.0870    -2.0180 H     1 <1>   0.0000 
 32 H       -1.5460    -4.2750    -1.3610 H     1 <1>   0.0000 
 33 H       -0.9900    -2.6090    -1.6710 H     1 <1>   0.0000 
 34 C       -3.4330    -2.0590     0.1670 C.3   1 <1>   0.3690 
 35 H       -3.2530    -1.1120     0.6860 H     1 <1>   0.0000 
 36 H       -4.1840    -2.6330     0.7200 H     1 <1>   0.0000 
 37 H       -3.8620    -1.8070    -0.8090 H     1 <1>   0.0000 
@<TRIPOS>BOND
  1   1   2  1   
  2   2   3  1   
  3   2   4  2   
  4   4   5  1   
  5   4  29  1   
  6   5   6  2   
  7   5  27  1   
  8   6   7  1   
  9   6  11  1   
 10   7   8  1   
 11   7   9  1   
 12   7  10  1   
 13  11  12  1   
 14  11  13  1   
 15  13  14  1   
 16  13  27  am  
 17  14  15  ar  
 18  14  25  ar  
 19  15  16  1   
 20  15  17  ar  
 21  17  18  1   
 22  17  19  ar  
 23  19  20  1   
 24  19  23  ar  
 25  20  21  2   
 26  20  22  2   
 27  23  24  1   
 28  23  25  ar  
 29  25  26  1   
 30  27  28  2   
 31  29  30  1   
 32  29  34  1   
 33  30  31  1   
 34  30  32  1   
 35  30  33  1   
 36  34  35  1   
 37  34  36  1   
 38  34  37  1   
@<TRIPOS>SUBSTRUCTURE
  1 ****  13 GROUP 4 **** **** 0

# MOE 2022.02 (io_trps.svl 2020.11)

@<TRIPOS>MOLECULE
CEP034
34 36 1 0 0 
SMALL
USER_CHARGES


@<TRIPOS>ATOM
  1 H       -4.5030     1.4770    -0.1960 H     1 <1>   0.1500 
  2 C       -3.9990     0.5190    -0.1160 C.ar  1 <1>  -0.1500 
  3 C       -4.7850    -0.6050     0.1220 C.ar  1 <1>   0.0820 
  4 C       -4.1950    -1.8640     0.2180 C.ar  1 <1>   0.0820 
  5 C       -2.8100    -1.9980     0.1220 C.ar  1 <1>  -0.1500 
  6 H       -2.3950    -2.9970     0.2170 H     1 <1>   0.1500 
  7 C       -1.9970    -0.8790    -0.1040 C.ar  1 <1>   0.1170 
  8 N       -0.5900    -0.9920    -0.2120 N.am  1 <1>  -0.5470 
  9 H       -0.1000    -0.1110    -0.3890 H     1 <1>   0.3700 
 10 C        0.1990    -2.1120    -0.1100 C.2   1 <1>   0.6300 
 11 O       -0.1510    -3.2660     0.0800 O.2   1 <1>  -0.5700 
 12 C        1.6490    -1.8190    -0.2940 C.3   1 <1>  -0.1000 
 13 H        1.9930    -1.9930    -1.3080 H     1 <1>   0.1000 
 14 C        2.3470    -0.7370     0.4990 C.3   1 <1>  -0.2000 
 15 H        3.1170    -0.1630    -0.0030 H     1 <1>   0.1000 
 16 H        1.7810    -0.1710     1.2310 H     1 <1>   0.1000 
 17 C        2.6250    -2.1790     0.8030 C.3   1 <1>  -0.2000 
 18 H        2.2280    -2.5950     1.7230 H     1 <1>   0.1000 
 19 H        3.5830    -2.5910     0.5080 H     1 <1>   0.1000 
 20 C       -2.6040     0.3980    -0.2300 C.ar  1 <1>   0.0860 
 21 C       -1.7740     1.6290    -0.4770 C.2   1 <1>   0.4230 
 22 O       -0.5480     1.5430    -0.5670 O.2   1 <1>  -0.5700 
 23 C       -2.4540     2.9670    -0.6130 C.3   1 <1>   0.0610 
 24 H       -1.6980     3.7370    -0.7990 H     1 <1>   0.0000 
 25 H       -2.9760     3.2250     0.3120 H     1 <1>   0.0000 
 26 H       -3.1400     2.9600    -1.4640 H     1 <1>   0.0000 
 27 O       -4.9150    -3.0140     0.4180 O.3   1 <1>  -0.3630 
 28 C       -6.3090    -2.8150     0.1570 C.3   1 <1>   0.2800 
 29 H       -6.8490    -3.6750     0.5630 H     1 <1>   0.0000 
 30 H       -6.4620    -2.7960    -0.9290 H     1 <1>   0.0000 
 31 C       -6.7950    -1.5320     0.8100 C.3   1 <1>   0.2800 
 32 H       -6.6110    -1.5370     1.8910 H     1 <1>   0.0000 
 33 H       -7.8700    -1.4070     0.6470 H     1 <1>   0.0000 
 34 O       -6.1350    -0.3940     0.2420 O.3   1 <1>  -0.3630 
@<TRIPOS>BOND
  1   1   2  1   
  2   2   3  ar  
  3   2  20  ar  
  4   3   4  ar  
  5   3  34  1   
  6   4   5  ar  
  7   4  27  1   
  8   5   6  1   
  9   5   7  ar  
 10   7   8  1   
 11   7  20  ar  
 12   8   9  1   
 13   8  10  am  
 14  10  11  2   
 15  10  12  1   
 16  12  13  1   
 17  12  14  1   
 18  12  17  1   
 19  14  15  1   
 20  14  16  1   
 21  14  17  1   
 22  17  18  1   
 23  17  19  1   
 24  20  21  1   
 25  21  22  2   
 26  21  23  1   
 27  23  24  1   
 28  23  25  1   
 29  23  26  1   
 30  27  28  1   
 31  28  29  1   
 32  28  30  1   
 33  28  31  1   
 34  31  32  1   
 35  31  33  1   
 36  31  34  1   
@<TRIPOS>SUBSTRUCTURE
  1 ****   7 GROUP 4 **** **** 0

# MOE 2022.02 (io_trps.svl 2020.11)

@<TRIPOS>MOLECULE
CEP035
36 39 1 0 0 
SMALL
USER_CHARGES


@<TRIPOS>ATOM
  1 H       -7.5870    -7.4320     1.0250 H     1 <1>   0.1500 
  2 C       -7.0600    -6.5360     0.7070 C.ar  1 <1>  -0.1500 
  3 C       -6.9500    -6.2320    -0.6490 C.ar  1 <1>  -0.1500 
  4 H       -7.3920    -6.8950    -1.3900 H     1 <1>   0.1500 
  5 C       -6.2720    -5.0800    -1.0600 C.ar  1 <1>  -0.1500 
  6 H       -6.1980    -4.8670    -2.1250 H     1 <1>   0.1500 
  7 C       -5.6940    -4.2150    -0.1170 C.ar  1 <1>  -0.1440 
  8 C       -4.9560    -2.9670    -0.5780 C.3   1 <1>   0.2870 
  9 H       -5.0090    -2.9320    -1.6770 H     1 <1>   0.0000 
 10 C       -3.4680    -2.9310    -0.2650 C.ar  1 <1>  -0.1440 
 11 C       -2.6850    -4.0930    -0.1570 C.ar  1 <1>  -0.1500 
 12 H       -3.1330    -5.0800    -0.2390 H     1 <1>   0.1500 
 13 C       -1.3060    -4.0020     0.0340 C.ar  1 <1>   0.0820 
 14 C       -0.6910    -2.7510     0.1250 C.ar  1 <1>   0.0820 
 15 C       -1.4450    -1.5900    -0.0240 C.ar  1 <1>  -0.1500 
 16 H       -0.9500    -0.6250     0.0240 H     1 <1>   0.1500 
 17 C       -2.8250    -1.6840    -0.2120 C.ar  1 <1>   0.1170 
 18 N       -3.5630    -0.5110    -0.3970 N.am  1 <1>  -0.5470 
 19 H       -3.0850     0.3740    -0.5100 H     1 <1>   0.3700 
 20 C       -4.9280    -0.4560    -0.4440 C.2   1 <1>   0.5690 
 21 O       -5.5100     0.5960    -0.6980 O.2   1 <1>  -0.5700 
 22 C       -5.6630    -1.7120    -0.0570 C.3   1 <1>   0.0610 
 23 H       -6.6830    -1.6590    -0.4580 H     1 <1>   0.0000 
 24 H       -5.7390    -1.7040     1.0370 H     1 <1>   0.0000 
 25 O        0.6540    -2.5890     0.3410 O.3   1 <1>  -0.3630 
 26 C        1.2540    -3.8030     0.8090 C.3   1 <1>   0.2800 
 27 H        0.9980    -3.9340     1.8670 H     1 <1>   0.0000 
 28 H        2.3400    -3.6870     0.7320 H     1 <1>   0.0000 
 29 C        0.7920    -4.9850    -0.0270 C.3   1 <1>   0.2800 
 30 H        1.2930    -5.9010     0.3010 H     1 <1>   0.0000 
 31 H        1.0140    -4.8360    -1.0910 H     1 <1>   0.0000 
 32 O       -0.6190    -5.1860     0.1180 O.3   1 <1>  -0.3630 
 33 C       -5.8170    -4.5420     1.2400 C.ar  1 <1>   0.1900 
 34 F       -5.2730    -3.7510     2.1760 F     1 <1>  -0.1900 
 35 C       -6.4920    -5.6880     1.6540 C.ar  1 <1>  -0.1500 
 36 H       -6.5650    -5.9120     2.7140 H     1 <1>   0.1500 
@<TRIPOS>BOND
  1   1   2  1   
  2   2   3  ar  
  3   2  35  ar  
  4   3   4  1   
  5   3   5  ar  
  6   5   6  1   
  7   5   7  ar  
  8   7   8  1   
  9   7  33  ar  
 10   8   9  1   
 11   8  10  1   
 12   8  22  1   
 13  10  11  ar  
 14  10  17  ar  
 15  11  12  1   
 16  11  13  ar  
 17  13  14  ar  
 18  13  32  1   
 19  14  15  ar  
 20  14  25  1   
 21  15  16  1   
 22  15  17  ar  
 23  17  18  1   
 24  18  19  1   
 25  18  20  am  
 26  20  21  2   
 27  20  22  1   
 28  22  23  1   
 29  22  24  1   
 30  25  26  1   
 31  26  27  1   
 32  26  28  1   
 33  26  29  1   
 34  29  30  1   
 35  29  31  1   
 36  29  32  1   
 37  33  34  1   
 38  33  35  ar  
 39  35  36  1   
@<TRIPOS>SUBSTRUCTURE
  1 ****  10 GROUP 4 **** **** 0

# MOE 2022.02 (io_trps.svl 2020.11)

@<TRIPOS>MOLECULE
CEP036
38 40 1 0 0 
SMALL
USER_CHARGES


@<TRIPOS>ATOM
  1 H       -3.4760    -6.1140    -0.4570 H     1 <1>   0.1500 
  2 C       -2.4610    -5.7850    -0.2530 C.ar  1 <1>  -0.1500 
  3 C       -1.5510    -6.6610     0.3300 C.ar  1 <1>  -0.1500 
  4 H       -1.8490    -7.6770     0.5760 H     1 <1>   0.1500 
  5 C       -0.2380    -6.2470     0.5640 C.ar  1 <1>  -0.1500 
  6 H        0.4710    -6.9630     0.9730 H     1 <1>   0.1500 
  7 C        0.1780    -4.9430     0.2500 C.ar  1 <1>   0.1170 
  8 C       -0.7640    -4.0480    -0.3030 C.ar  1 <1>   0.1170 
  9 C       -2.0640    -4.4900    -0.5830 C.ar  1 <1>  -0.1500 
 10 H       -2.7910    -3.8210    -1.0390 H     1 <1>   0.1500 
 11 N       -0.4580    -2.7290    -0.6790 N.am  1 <1>  -0.5470 
 12 H       -0.9650    -2.3130    -1.4500 H     1 <1>   0.3700 
 13 C        0.4630    -1.9120    -0.0900 C.2   1 <1>   0.5690 
 14 O        0.7960    -0.8480    -0.6080 O.2   1 <1>  -0.5700 
 15 C        0.9480    -2.3300     1.2680 C.3   1 <1>   0.0610 
 16 H        0.0850    -2.6080     1.8860 H     1 <1>   0.0000 
 17 H        1.4010    -1.4570     1.7540 H     1 <1>   0.0000 
 18 C        1.9660    -3.4560     1.1640 C.3   1 <1>   0.3000 
 19 H        2.8580    -3.0140     0.7200 H     1 <1>   0.0000 
 20 C        2.3060    -3.9280     2.5860 C.3   1 <1>   0.0000 
 21 H        3.0280    -4.7500     2.5850 H     1 <1>   0.0000 
 22 H        2.7270    -3.1080     3.1780 H     1 <1>   0.0000 
 23 H        1.4110    -4.2940     3.1030 H     1 <1>   0.0000 
 24 N        1.5750    -4.6160     0.3420 N.am  1 <1>  -0.4770 
 25 C        2.4910    -5.4430    -0.3320 C.2   1 <1>   0.5690 
 26 O        2.1440    -6.4550    -0.9580 O.2   1 <1>  -0.5700 
 27 C        3.9840    -5.0370    -0.4280 C.3   1 <1>   0.3410 
 28 H        4.5190    -5.9640    -0.6790 H     1 <1>   0.0000 
 29 O        4.6710    -4.5200     0.7090 O.3   1 <1>  -0.5600 
 30 C        5.5970    -3.5120     0.2720 C.3   1 <1>   0.2800 
 31 H        5.2560    -2.5500     0.6680 H     1 <1>   0.0000 
 32 H        6.5880    -3.7230     0.6820 H     1 <1>   0.0000 
 33 C        5.5850    -3.5180    -1.2410 C.3   1 <1>   0.0000 
 34 H        5.7960    -2.5360    -1.6740 H     1 <1>   0.0000 
 35 H        6.3380    -4.2220    -1.6150 H     1 <1>   0.0000 
 36 C        4.2050    -4.0360    -1.5540 C.3   1 <1>   0.0000 
 37 H        4.1330    -4.4930    -2.5450 H     1 <1>   0.0000 
 38 H        3.4760    -3.2180    -1.5120 H     1 <1>   0.0000 
@<TRIPOS>BOND
  1   1   2  1   
  2   2   3  ar  
  3   2   9  ar  
  4   3   4  1   
  5   3   5  ar  
  6   5   6  1   
  7   5   7  ar  
  8   7   8  ar  
  9   7  24  1   
 10   8   9  ar  
 11   8  11  1   
 12   9  10  1   
 13  11  12  1   
 14  11  13  am  
 15  13  14  2   
 16  13  15  1   
 17  15  16  1   
 18  15  17  1   
 19  15  18  1   
 20  18  19  1   
 21  18  20  1   
 22  18  24  1   
 23  20  21  1   
 24  20  22  1   
 25  20  23  1   
 26  24  25  am  
 27  25  26  2   
 28  25  27  1   
 29  27  28  1   
 30  27  29  1   
 31  27  36  1   
 32  29  30  1   
 33  30  31  1   
 34  30  32  1   
 35  30  33  1   
 36  33  34  1   
 37  33  35  1   
 38  33  36  1   
 39  36  37  1   
 40  36  38  1   
@<TRIPOS>SUBSTRUCTURE
  1 ****  24 GROUP 4 **** **** 0

# MOE 2022.02 (io_trps.svl 2020.11)

@<TRIPOS>MOLECULE
CEP037
39 41 1 0 0 
SMALL
USER_CHARGES


@<TRIPOS>ATOM
  1 H       12.3010    -0.1680    -0.2500 H     1 <1>   0.4500 
  2 O       11.7700    -0.1580     0.5630 O.3   1 <1>  -0.5320 
  3 C       10.6280     0.5500     0.3280 C.ar  1 <1>   0.0820 
  4 C        9.7140     0.6680     1.3670 C.ar  1 <1>  -0.1500 
  5 H        9.9190     0.2030     2.3260 H     1 <1>   0.1500 
  6 C        8.5290     1.3800     1.1690 C.ar  1 <1>  -0.1500 
  7 H        7.8180     1.4500     1.9900 H     1 <1>   0.1500 
  8 C        8.2530     1.9810    -0.0710 C.ar  1 <1>  -0.1440 
  9 C        6.9640     2.7600    -0.3130 C.3   1 <1>   0.2870 
 10 H        6.9850     3.1360    -1.3460 H     1 <1>   0.0000 
 11 C        5.6810     1.9480    -0.2210 C.ar  1 <1>  -0.1440 
 12 C        5.6240     0.5760    -0.4970 C.ar  1 <1>  -0.1500 
 13 H        6.5290     0.0160    -0.7280 H     1 <1>   0.1500 
 14 C        4.4040    -0.1120    -0.4880 C.ar  1 <1>   0.0820 
 15 O        4.5070    -1.4500    -0.7790 O.3   1 <1>  -0.3630 
 16 C        3.7680    -2.2950     0.0990 C.3   1 <1>   0.2800 
 17 H        3.6730    -1.8810     1.1090 H     1 <1>   0.0000 
 18 H        2.7840    -2.5150    -0.3270 H     1 <1>   0.0000 
 19 H        4.3100    -3.2420     0.1800 H     1 <1>   0.0000 
 20 C        3.2000     0.5780    -0.2800 C.ar  1 <1>   0.0820 
 21 O        2.0380    -0.1430    -0.3630 O.3   1 <1>  -0.3630 
 22 C        0.8200     0.5820    -0.4700 C.3   1 <1>   0.2800 
 23 H        0.8480     1.2920    -1.3030 H     1 <1>   0.0000 
 24 H        0.5810     1.0850     0.4720 H     1 <1>   0.0000 
 25 H        0.0210    -0.1380    -0.6730 H     1 <1>   0.0000 
 26 C        3.2500     1.9510    -0.0150 C.ar  1 <1>  -0.1500 
 27 H        2.3430     2.5170     0.1680 H     1 <1>   0.1500 
 28 C        4.4780     2.6220     0.0200 C.ar  1 <1>   0.1170 
 29 N        4.4880     4.0010     0.2490 N.am  1 <1>  -0.5470 
 30 H        3.6190     4.5200     0.2770 H     1 <1>   0.3700 
 31 C        5.6200     4.7450     0.4430 C.2   1 <1>   0.5690 
 32 O        5.5570     5.9650     0.5690 O.2   1 <1>  -0.5700 
 33 C        6.9060     3.9780     0.6130 C.3   1 <1>   0.0610 
 34 H        6.9650     3.6930     1.6700 H     1 <1>   0.0000 
 35 H        7.7460     4.6520     0.4050 H     1 <1>   0.0000 
 36 C        9.1940     1.8490    -1.1060 C.ar  1 <1>  -0.1500 
 37 H        9.0090     2.2980    -2.0790 H     1 <1>   0.1500 
 38 C       10.3790     1.1350    -0.9080 C.ar  1 <1>  -0.1500 
 39 H       11.0870     1.0470    -1.7250 H     1 <1>   0.1500 
@<TRIPOS>BOND
  1   1   2  1   
  2   2   3  1   
  3   3   4  ar  
  4   3  38  ar  
  5   4   5  1   
  6   4   6  ar  
  7   6   7  1   
  8   6   8  ar  
  9   8   9  1   
 10   8  36  ar  
 11   9  10  1   
 12   9  11  1   
 13   9  33  1   
 14  11  12  ar  
 15  11  28  ar  
 16  12  13  1   
 17  12  14  ar  
 18  14  15  1   
 19  14  20  ar  
 20  15  16  1   
 21  16  17  1   
 22  16  18  1   
 23  16  19  1   
 24  20  21  1   
 25  20  26  ar  
 26  21  22  1   
 27  22  23  1   
 28  22  24  1   
 29  22  25  1   
 30  26  27  1   
 31  26  28  ar  
 32  28  29  1   
 33  29  30  1   
 34  29  31  am  
 35  31  32  2   
 36  31  33  1   
 37  33  34  1   
 38  33  35  1   
 39  36  37  1   
 40  36  38  ar  
 41  38  39  1   
@<TRIPOS>SUBSTRUCTURE
  1 ****  11 GROUP 4 **** **** 0

# MOE 2022.02 (io_trps.svl 2020.11)

@<TRIPOS>MOLECULE
CEP038
26 28 1 0 0 
SMALL
USER_CHARGES


@<TRIPOS>ATOM
  1 H        0.4020     2.4660    -0.2240 H     1 <1>   0.1500 
  2 C       -0.5790     1.9980    -0.1880 C.ar  1 <1>  -0.1500 
  3 C       -0.6700     0.5910    -0.1290 C.ar  1 <1>  -0.1500 
  4 H        0.2420    -0.0040    -0.1190 H     1 <1>   0.1500 
  5 C       -1.9110    -0.0520    -0.0820 C.ar  1 <1>  -0.1500 
  6 H       -1.9770    -1.1330    -0.0370 H     1 <1>   0.1500 
  7 C       -3.0310     0.7500    -0.0970 C.ar  1 <1>   0.1170 
  8 C       -2.9450     2.1610    -0.1570 C.ar  1 <1>   0.1000 
  9 C       -1.7270     2.7990    -0.2030 C.ar  1 <1>  -0.1500 
 10 H       -1.6510     3.8790    -0.2480 H     1 <1>   0.1500 
 11 N       -4.2360     2.6960    -0.1570 N.pl3 1 <1>  -0.6000 
 12 H       -4.4770     3.6720    -0.1940 H     1 <1>   0.4000 
 13 C       -5.1230     1.6380    -0.0980 C.2   1 <1>   0.2090 
 14 C       -6.4680     1.6240    -0.0730 C.2   1 <1>   0.0650 
 15 C       -7.1880     2.8540    -0.1110 C.1   1 <1>   0.4920 
 16 N       -7.7610     3.8620    -0.1420 N.1   1 <1>  -0.5570 
 17 C       -7.1660     0.3360    -0.0070 C.2   1 <1>  -0.1380 
 18 C       -8.6660     0.3360     0.0210 C.3   1 <1>   1.1580 
 19 F       -9.1830    -0.9180     0.0800 F     1 <1>  -0.3400 
 20 F       -9.1870     0.9170    -1.0870 F     1 <1>  -0.3400 
 21 F       -9.1460     1.0040     1.0970 F     1 <1>  -0.3400 
 22 C       -6.4610    -0.8140     0.0280 C.2   1 <1>  -0.1360 
 23 H       -6.9260    -1.7930     0.0770 H     1 <1>   0.1500 
 24 C       -4.9710    -0.8190     0.0010 C.2   1 <1>   0.6160 
 25 O       -4.3830    -1.8940     0.0360 O.2   1 <1>  -0.5700 
 26 N       -4.4090     0.4340    -0.0600 N.am  1 <1>  -0.2860 
@<TRIPOS>BOND
  1   1   2  1   
  2   2   3  ar  
  3   2   9  ar  
  4   3   4  1   
  5   3   5  ar  
  6   5   6  1   
  7   5   7  ar  
  8   7   8  ar  
  9   7  26  1   
 10   8   9  ar  
 11   8  11  1   
 12   9  10  1   
 13  11  12  1   
 14  11  13  1   
 15  13  14  2   
 16  13  26  1   
 17  14  15  1   
 18  14  17  1   
 19  15  16  3   
 20  17  18  1   
 21  17  22  2   
 22  18  19  1   
 23  18  20  1   
 24  18  21  1   
 25  22  23  1   
 26  22  24  1   
 27  24  25  2   
 28  24  26  am  
@<TRIPOS>SUBSTRUCTURE
  1 ****  13 GROUP 4 **** **** 0

# MOE 2022.02 (io_trps.svl 2020.11)

@<TRIPOS>MOLECULE
CEP039
35 37 1 0 0 
SMALL
USER_CHARGES


@<TRIPOS>ATOM
  1 H       11.6910    -1.3030    -0.8530 H     1 <1>   0.4500 
  2 O       11.7460    -0.3790    -0.5610 O.3   1 <1>  -0.5320 
  3 C       10.4910     0.1630    -0.5440 C.ar  1 <1>   0.0820 
  4 C        9.4180    -0.6450    -0.9330 C.ar  1 <1>  -0.1500 
  5 H        9.5750    -1.6730    -1.2470 H     1 <1>   0.1500 
  6 C        8.1160    -0.1380    -0.9340 C.ar  1 <1>  -0.1500 
  7 H        7.3010    -0.7800    -1.2600 H     1 <1>   0.1500 
  8 C        7.8700     1.1780    -0.5350 C.ar  1 <1>   0.0280 
  9 C        6.5230     1.7650    -0.5630 C.2   1 <1>  -0.1780 
 10 H        6.4700     2.7610    -0.9940 H     1 <1>   0.1500 
 11 C        5.4140     1.1810    -0.0890 C.2   1 <1>   0.0770 
 12 O        5.3710    -0.0750     0.5290 O.3   1 <1>  -0.1530 
 13 C        4.0330    -0.3190     0.9020 C.2   1 <1>   0.1530 
 14 O        3.6780    -1.4720     1.5330 O.3   1 <1>  -0.5270 
 15 H        4.5090    -1.9620     1.6560 H     1 <1>   0.4500 
 16 C        3.2170     0.6860     0.5680 C.2   1 <1>   0.0140 
 17 C        1.7700     0.9060     0.7360 C.2   1 <1>   0.6160 
 18 O        1.0060     0.1090     1.2670 O.2   1 <1>  -0.5700 
 19 N        1.3240     2.1140     0.2340 N.am  1 <1>  -0.5390 
 20 H        0.3300     2.2680     0.3470 H     1 <1>   0.3700 
 21 C        2.0970     3.0760    -0.3800 C.2   1 <1>   0.1090 
 22 C        1.5330     4.2050    -0.8220 C.2   1 <1>  -0.3000 
 23 H        2.1150     4.9820    -1.3100 H     1 <1>   0.1500 
 24 H        0.4700     4.3960    -0.7140 H     1 <1>   0.1500 
 25 C        3.5210     2.8200    -0.5250 C.2   1 <1>  -0.1500 
 26 H        4.1350     3.5730    -1.0080 H     1 <1>   0.1500 
 27 C        4.0530     1.6780    -0.0700 C.2   1 <1>   0.0000 
 28 C        8.9550     1.9810    -0.1610 C.ar  1 <1>  -0.1500 
 29 H        8.7880     3.0140     0.1410 H     1 <1>   0.1500 
 30 C       10.2700     1.4890    -0.1550 C.ar  1 <1>   0.0820 
 31 O       11.1840     2.4260     0.2460 O.3   1 <1>  -0.3630 
 32 C       12.5530     2.0530     0.2940 C.3   1 <1>   0.2800 
 33 H       12.7230     1.2540     1.0220 H     1 <1>   0.0000 
 34 H       13.1200     2.9250     0.6340 H     1 <1>   0.0000 
 35 H       12.9290     1.7930    -0.7010 H     1 <1>   0.0000 
@<TRIPOS>BOND
  1   1   2  1   
  2   2   3  1   
  3   3   4  ar  
  4   3  30  ar  
  5   4   5  1   
  6   4   6  ar  
  7   6   7  1   
  8   6   8  ar  
  9   8   9  1   
 10   8  28  ar  
 11   9  10  1   
 12   9  11  2   
 13  11  12  1   
 14  11  27  1   
 15  12  13  1   
 16  13  14  1   
 17  13  16  2   
 18  14  15  1   
 19  16  17  1   
 20  16  27  1   
 21  17  18  2   
 22  17  19  am  
 23  19  20  1   
 24  19  21  1   
 25  21  22  2   
 26  21  25  1   
 27  22  23  1   
 28  22  24  1   
 29  25  26  1   
 30  25  27  2   
 31  28  29  1   
 32  28  30  ar  
 33  30  31  1   
 34  31  32  1   
 35  32  33  1   
 36  32  34  1   
 37  32  35  1   
@<TRIPOS>SUBSTRUCTURE
  1 ****  11 GROUP 4 **** **** 0

# MOE 2022.02 (io_trps.svl 2020.11)

@<TRIPOS>MOLECULE
CEP040
30 32 1 0 0 
SMALL
USER_CHARGES


@<TRIPOS>ATOM
  1 H        0.2770    -3.0330     0.9880 H     1 <1>   0.0600 
  2 C       -0.2130    -2.1680     0.5170 C.2   1 <1>   0.3760 
  3 N       -1.5010    -2.1250     0.5810 N.2   1 <1>  -0.5120 
  4 N       -2.1570    -1.0550     0.0070 N.am  1 <1>  -0.1150 
  5 C       -3.5950    -1.1290     0.1390 C.ar  1 <1>   0.1170 
  6 C       -4.1860    -2.2160     0.8160 C.ar  1 <1>  -0.1500 
  7 H       -3.5700    -3.0030     1.2460 H     1 <1>   0.1500 
  8 C       -5.5730    -2.3310     0.9660 C.ar  1 <1>  -0.1500 
  9 H       -5.9910    -3.1830     1.4950 H     1 <1>   0.1500 
 10 C       -6.4110    -1.3570     0.4390 C.ar  1 <1>  -0.1500 
 11 H       -7.4880    -1.4400     0.5510 H     1 <1>   0.1500 
 12 C       -5.8580    -0.2740    -0.2350 C.ar  1 <1>  -0.1500 
 13 H       -6.5050     0.4940    -0.6520 H     1 <1>   0.1500 
 14 C       -4.4680    -0.1630    -0.3820 C.ar  1 <1>  -0.1500 
 15 H       -4.1130     0.7080    -0.9210 H     1 <1>   0.1500 
 16 C       -1.4680    -0.0130    -0.6330 C.2   1 <1>   0.6160 
 17 O       -1.9740     0.9790    -1.1590 O.2   1 <1>  -0.5700 
 18 C        0.0230    -0.1490    -0.6620 C.2   1 <1>   0.1540 
 19 CL       0.9070     1.1220    -1.4570 Cl    1 <1>  -0.1400 
 20 C        0.6820    -1.1810    -0.1190 C.2   1 <1>   0.1140 
 21 N        2.0470    -1.3680    -0.1120 N.pl3 1 <1>  -0.6690 
 22 H        2.6320    -0.6590    -0.5490 H     1 <1>   0.4000 
 23 C        2.7540    -2.4900     0.4700 C.3   1 <1>   0.0690 
 24 H        2.7270    -2.4840     1.5580 H     1 <1>   0.1000 
 25 C        2.7980    -3.8270    -0.2140 C.3   1 <1>  -0.2000 
 26 H        2.7580    -4.7160     0.4050 H     1 <1>   0.1000 
 27 H        2.3090    -3.9330    -1.1760 H     1 <1>   0.1000 
 28 C        4.0340    -2.9800    -0.1490 C.3   1 <1>  -0.2000 
 29 H        4.8300    -3.2950     0.5150 H     1 <1>   0.1000 
 30 H        4.3790    -2.5230    -1.0690 H     1 <1>   0.1000 
@<TRIPOS>BOND
  1   1   2  1   
  2   2   3  2   
  3   2  20  1   
  4   3   4  1   
  5   4   5  1   
  6   4  16  am  
  7   5   6  ar  
  8   5  14  ar  
  9   6   7  1   
 10   6   8  ar  
 11   8   9  1   
 12   8  10  ar  
 13  10  11  1   
 14  10  12  ar  
 15  12  13  1   
 16  12  14  ar  
 17  14  15  1   
 18  16  17  2   
 19  16  18  1   
 20  18  19  1   
 21  18  20  2   
 22  20  21  1   
 23  21  22  1   
 24  21  23  1   
 25  23  24  1   
 26  23  25  1   
 27  23  28  1   
 28  25  26  1   
 29  25  27  1   
 30  25  28  1   
 31  28  29  1   
 32  28  30  1   
@<TRIPOS>SUBSTRUCTURE
  1 ****   4 GROUP 4 **** **** 0

# MOE 2022.02 (io_trps.svl 2020.11)

@<TRIPOS>MOLECULE
CEP041
30 32 1 0 0 
SMALL
USER_CHARGES


@<TRIPOS>ATOM
  1 H      -10.4500     2.7610     0.1520 H     1 <1>   0.1500 
  2 C       -9.4710     2.2860     0.1200 C.ar  1 <1>  -0.1500 
  3 C       -9.3900     0.8790     0.0520 C.ar  1 <1>  -0.1500 
  4 H      -10.3060     0.2910     0.0310 H     1 <1>   0.1500 
  5 C       -8.1540     0.2270     0.0100 C.ar  1 <1>  -0.1500 
  6 H       -8.0930    -0.8540    -0.0430 H     1 <1>   0.1500 
  7 C       -7.0280     1.0210     0.0380 C.ar  1 <1>   0.1170 
  8 C       -7.1050     2.4320     0.1070 C.ar  1 <1>   0.1000 
  9 C       -8.3180     3.0790     0.1490 C.ar  1 <1>  -0.1500 
 10 H       -8.3860     4.1590     0.2010 H     1 <1>   0.1500 
 11 N       -5.8110     2.9580     0.1220 N.pl3 1 <1>  -0.6000 
 12 H       -5.5600     3.9310     0.1670 H     1 <1>   0.4000 
 13 C       -4.9300     1.8930     0.0620 C.2   1 <1>   0.2090 
 14 C       -3.5850     1.8700     0.0480 C.2   1 <1>   0.0650 
 15 C       -2.8550     3.0920     0.1010 C.1   1 <1>   0.4920 
 16 N       -2.2480     4.0800     0.1440 N.1   1 <1>  -0.5570 
 17 C       -2.8870     0.5770    -0.0230 C.2   1 <1>  -0.1380 
 18 C       -1.3720     0.5940    -0.0380 C.3   1 <1>   0.4180 
 19 H       -1.0180     1.1630    -0.9060 H     1 <1>   0.0000 
 20 H       -0.9990     1.0620     0.8810 H     1 <1>   0.0000 
 21 O       -0.8480    -0.7310    -0.1190 O.3   1 <1>  -0.5600 
 22 C        0.5740    -0.7320    -0.1420 C.3   1 <1>   0.2800 
 23 H        0.9160    -1.7690    -0.2040 H     1 <1>   0.0000 
 24 H        0.9730    -0.2870     0.7740 H     1 <1>   0.0000 
 25 H        0.9430    -0.1900    -1.0180 H     1 <1>   0.0000 
 26 C       -3.6060    -0.5640    -0.0720 C.2   1 <1>  -0.1360 
 27 H       -3.1490    -1.5460    -0.1250 H     1 <1>   0.1500 
 28 C       -5.0970    -0.5620    -0.0570 C.2   1 <1>   0.6160 
 29 O       -5.6980    -1.6300    -0.1030 O.2   1 <1>  -0.5700 
 30 N       -5.6530     0.6950     0.0100 N.am  1 <1>  -0.2860 
@<TRIPOS>BOND
  1   1   2  1   
  2   2   3  ar  
  3   2   9  ar  
  4   3   4  1   
  5   3   5  ar  
  6   5   6  1   
  7   5   7  ar  
  8   7   8  ar  
  9   7  30  1   
 10   8   9  ar  
 11   8  11  1   
 12   9  10  1   
 13  11  12  1   
 14  11  13  1   
 15  13  14  2   
 16  13  30  1   
 17  14  15  1   
 18  14  17  1   
 19  15  16  3   
 20  17  18  1   
 21  17  26  2   
 22  18  19  1   
 23  18  20  1   
 24  18  21  1   
 25  21  22  1   
 26  22  23  1   
 27  22  24  1   
 28  22  25  1   
 29  26  27  1   
 30  26  28  1   
 31  28  29  2   
 32  28  30  am  
@<TRIPOS>SUBSTRUCTURE
  1 ****  13 GROUP 4 **** **** 0

# MOE 2022.02 (io_trps.svl 2020.11)

@<TRIPOS>MOLECULE
CEP042
30 31 1 0 0 
SMALL
USER_CHARGES


@<TRIPOS>ATOM
  1 H       -2.9820    -6.1560     0.1580 H     1 <1>   0.1500 
  2 C       -2.0210    -5.6540     0.0840 C.ar  1 <1>  -0.1500 
  3 C       -0.8730    -6.3800    -0.1740 C.ar  1 <1>  -0.1500 
  4 H       -0.9220    -7.4570    -0.3120 H     1 <1>   0.1500 
  5 C        0.3550    -5.7220    -0.2680 C.ar  1 <1>  -0.1500 
  6 H        1.2180    -6.3360    -0.5170 H     1 <1>   0.1500 
  7 C        0.4790    -4.3250    -0.1000 C.ar  1 <1>   0.1170 
  8 C       -0.7000    -3.5890     0.1690 C.ar  1 <1>   0.1170 
  9 C       -1.9330    -4.2740     0.2500 C.ar  1 <1>  -0.1500 
 10 H       -2.8550    -3.7350     0.4610 H     1 <1>   0.1500 
 11 N       -0.8200    -2.2040     0.4240 N.am  1 <1>  -0.5470 
 12 H       -1.7600    -1.8640     0.6020 H     1 <1>   0.3700 
 13 C        0.0620    -1.1780     0.5030 C.2   1 <1>   0.5690 
 14 O       -0.3740    -0.0570     0.7800 O.2   1 <1>  -0.5700 
 15 C        1.5280    -1.3830     0.3070 C.3   1 <1>   0.0610 
 16 H        1.9560    -0.4120     0.0300 H     1 <1>   0.0000 
 17 H        1.9780    -1.6900     1.2580 H     1 <1>   0.0000 
 18 C        1.7810    -2.3640    -0.8060 C.3   1 <1>   0.3000 
 19 H        1.0470    -2.2900    -1.6200 H     1 <1>   0.0000 
 20 H        2.7440    -2.1360    -1.2690 H     1 <1>   0.0000 
 21 N        1.7770    -3.7260    -0.2740 N.am  1 <1>  -0.4770 
 22 C        2.9560    -4.4080     0.0810 C.2   1 <1>   0.5690 
 23 O        2.9810    -5.4900     0.6710 O.2   1 <1>  -0.5700 
 24 C        4.2710    -3.7260    -0.2620 C.3   1 <1>   0.0610 
 25 H        4.3230    -3.5990    -1.3490 H     1 <1>   0.0000 
 26 H        4.2980    -2.7430     0.2220 H     1 <1>   0.0000 
 27 C        5.4570    -4.5540     0.2060 C.3   1 <1>   0.2900 
 28 H        5.4720    -5.5400    -0.2690 H     1 <1>   0.0000 
 29 H        5.4450    -4.6940     1.2920 H     1 <1>   0.0000 
 30 CL       6.9800    -3.7290    -0.2140 Cl    1 <1>  -0.2900 
@<TRIPOS>BOND
  1   1   2  1   
  2   2   3  ar  
  3   2   9  ar  
  4   3   4  1   
  5   3   5  ar  
  6   5   6  1   
  7   5   7  ar  
  8   7   8  ar  
  9   7  21  1   
 10   8   9  ar  
 11   8  11  1   
 12   9  10  1   
 13  11  12  1   
 14  11  13  am  
 15  13  14  2   
 16  13  15  1   
 17  15  16  1   
 18  15  17  1   
 19  15  18  1   
 20  18  19  1   
 21  18  20  1   
 22  18  21  1   
 23  21  22  am  
 24  22  23  2   
 25  22  24  1   
 26  24  25  1   
 27  24  26  1   
 28  24  27  1   
 29  27  28  1   
 30  27  29  1   
 31  27  30  1   
@<TRIPOS>SUBSTRUCTURE
  1 ****  21 GROUP 4 **** **** 0

# MOE 2022.02 (io_trps.svl 2020.11)

@<TRIPOS>MOLECULE
CEP043
34 35 1 0 0 
SMALL
USER_CHARGES


@<TRIPOS>ATOM
  1 H       -2.7920     0.3870    -1.3730 H     1 <1>   0.1500 
  2 C       -2.9670     1.4580    -1.2980 C.ar  1 <1>  -0.1500 
  3 C       -4.1040     2.0210    -1.8740 C.ar  1 <1>  -0.1500 
  4 H       -4.8170     1.3900    -2.4010 H     1 <1>   0.1500 
  5 C       -4.3320     3.3930    -1.7690 C.ar  1 <1>  -0.1500 
  6 H       -5.2270     3.8210    -2.2180 H     1 <1>   0.1500 
  7 C       -3.4130     4.2040    -1.0870 C.ar  1 <1>  -0.0280 
  8 C       -2.2720     3.6450    -0.5170 C.ar  1 <1>   0.1170 
  9 C       -2.0530     2.2670    -0.6190 C.ar  1 <1>  -0.1500 
 10 H       -1.1770     1.8020    -0.1690 H     1 <1>   0.1500 
 11 N       -1.3810     4.4920     0.1450 N.am  1 <1>  -0.1420 
 12 O       -0.2520     3.8940     0.7490 O.3   1 <1>  -0.3160 
 13 C        0.9400     4.2420     0.0420 C.3   1 <1>   0.3410 
 14 H        1.3800     5.1230     0.5180 H     1 <1>   0.0000 
 15 H        0.7340     4.4370    -1.0170 H     1 <1>   0.0000 
 16 C        1.9390     3.1000     0.1160 C.2   1 <1>   0.6590 
 17 O        1.7120     1.9800     0.5530 O.2   1 <1>  -0.5700 
 18 O        3.1340     3.5040    -0.4100 O.3   1 <1>  -0.4300 
 19 C        4.1560     2.4990    -0.3870 C.3   1 <1>   0.2800 
 20 H        4.3510     2.1940     0.6470 H     1 <1>   0.0000 
 21 H        3.8340     1.6310    -0.9740 H     1 <1>   0.0000 
 22 C        5.4140     3.0890    -0.9940 C.3   1 <1>   0.0000 
 23 H        6.2250     2.3550    -1.0000 H     1 <1>   0.0000 
 24 H        5.2280     3.4200    -2.0210 H     1 <1>   0.0000 
 25 H        5.7380     3.9690    -0.4290 H     1 <1>   0.0000 
 26 C       -1.5640     5.8380     0.2850 C.2   1 <1>   0.6300 
 27 O       -0.8140     6.6200     0.8540 O.2   1 <1>  -0.5700 
 28 C       -2.7970     6.3940    -0.3400 C.2   1 <1>  -0.0570 
 29 C       -3.0650     7.8660    -0.2130 C.3   1 <1>   0.0610 
 30 H       -2.1600     8.4250    -0.4710 H     1 <1>   0.0000 
 31 H       -3.3330     8.0890     0.8230 H     1 <1>   0.0000 
 32 H       -3.8660     8.2200    -0.8660 H     1 <1>   0.0000 
 33 N       -3.6580     5.6320    -0.9670 N.pl3 1 <1>   0.6570 
 34 O       -4.7190     6.1220    -1.4820 O.2   1 <1>  -0.6330 
@<TRIPOS>BOND
  1   1   2  1   
  2   2   3  ar  
  3   2   9  ar  
  4   3   4  1   
  5   3   5  ar  
  6   5   6  1   
  7   5   7  ar  
  8   7   8  ar  
  9   7  33  1   
 10   8   9  ar  
 11   8  11  1   
 12   9  10  1   
 13  11  12  1   
 14  11  26  am  
 15  12  13  1   
 16  13  14  1   
 17  13  15  1   
 18  13  16  1   
 19  16  17  2   
 20  16  18  1   
 21  18  19  1   
 22  19  20  1   
 23  19  21  1   
 24  19  22  1   
 25  22  23  1   
 26  22  24  1   
 27  22  25  1   
 28  26  27  2   
 29  26  28  1   
 30  28  29  1   
 31  28  33  2   
 32  29  30  1   
 33  29  31  1   
 34  29  32  1   
 35  33  34  2   
@<TRIPOS>SUBSTRUCTURE
  1 ****  11 GROUP 4 **** **** 0

# MOE 2022.02 (io_trps.svl 2020.11)

@<TRIPOS>MOLECULE
CEP044
43 45 1 0 0 
SMALL
USER_CHARGES


@<TRIPOS>ATOM
  1 H      -11.4540     5.3090     1.6830 H     1 <1>   0.1500 
  2 C      -10.3940     5.3230     1.4450 C.ar  1 <1>  -0.1500 
  3 C       -9.7080     6.5300     1.3770 C.ar  1 <1>  -0.1500 
  4 H      -10.2310     7.4660     1.5620 H     1 <1>   0.1500 
  5 C       -8.3420     6.5480     1.0700 C.ar  1 <1>  -0.1500 
  6 H       -7.8530     7.5170     1.0300 H     1 <1>   0.1500 
  7 C       -7.6350     5.3620     0.8260 C.ar  1 <1>   0.1170 
  8 N       -6.2560     5.3910     0.5160 N.am  1 <1>  -0.1570 
  9 C       -5.3870     6.4850     0.3930 C.2   1 <1>   0.6160 
 10 O       -5.5970     7.6800     0.5260 O.2   1 <1>  -0.5700 
 11 C       -4.0440     5.9160     0.0490 C.2   1 <1>   0.0290 
 12 C       -2.8070     6.6840    -0.2100 C.2   1 <1>   0.3750 
 13 N       -1.6730     6.2060     0.1930 N.2   1 <1>  -0.6960 
 14 C       -0.4510     6.9740    -0.0400 C.3   1 <1>   0.2460 
 15 H       -0.2340     7.0480    -1.1130 H     1 <1>   0.0000 
 16 H       -0.5440     7.9970     0.3460 H     1 <1>   0.0000 
 17 C        0.7240     6.2930     0.6650 C.3   1 <1>   0.2800 
 18 H        0.5360     6.2540     1.7460 H     1 <1>   0.0000 
 19 O        1.9310     7.0610     0.4760 O.3   1 <1>  -0.5600 
 20 C        3.0140     6.1500     0.2390 C.3   1 <1>   0.2800 
 21 H        3.8600     6.4090     0.8810 H     1 <1>   0.0000 
 22 H        3.3210     6.2650    -0.8060 H     1 <1>   0.0000 
 23 C        2.4890     4.7560     0.5050 C.3   1 <1>   0.0000 
 24 H        3.0120     3.9860    -0.0690 H     1 <1>   0.0000 
 25 H        2.5880     4.5150     1.5700 H     1 <1>   0.0000 
 26 C        1.0320     4.8970     0.1450 C.3   1 <1>   0.0000 
 27 H        0.3990     4.1250     0.5940 H     1 <1>   0.0000 
 28 H        0.9150     4.8480    -0.9440 H     1 <1>   0.0000 
 29 C       -2.9520     8.0090    -0.9280 C.3   1 <1>   0.0610 
 30 H       -2.2000     8.1000    -1.7160 H     1 <1>   0.0000 
 31 H       -3.9310     8.0980    -1.4070 H     1 <1>   0.0000 
 32 H       -2.8290     8.8260    -0.2110 H     1 <1>   0.0000 
 33 C       -4.2240     4.5840    -0.0060 C.2   1 <1>  -0.0380 
 34 C       -3.2360     3.5200    -0.3480 C.3   1 <1>   0.1380 
 35 H       -3.6730     2.8090    -1.0570 H     1 <1>   0.0000 
 36 H       -2.3310     3.9180    -0.8160 H     1 <1>   0.0000 
 37 H       -2.9450     2.9700     0.5530 H     1 <1>   0.0000 
 38 N       -5.5240     4.2520     0.2740 N.pl3 1 <1>  -0.5200 
 39 H       -5.8760     3.3050     0.2970 H     1 <1>   0.4000 
 40 C       -8.3470     4.1530     0.9000 C.ar  1 <1>  -0.1500 
 41 H       -7.8670     3.1980     0.7240 H     1 <1>   0.1500 
 42 C       -9.7130     4.1340     1.2070 C.ar  1 <1>  -0.1500 
 43 H      -10.2440     3.1860     1.2590 H     1 <1>   0.1500 
@<TRIPOS>BOND
  1   1   2  1   
  2   2   3  ar  
  3   2  42  ar  
  4   3   4  1   
  5   3   5  ar  
  6   5   6  1   
  7   5   7  ar  
  8   7   8  1   
  9   7  40  ar  
 10   8   9  am  
 11   8  38  1   
 12   9  10  2   
 13   9  11  1   
 14  11  12  1   
 15  11  33  2   
 16  12  13  2   
 17  12  29  1   
 18  13  14  1   
 19  14  15  1   
 20  14  16  1   
 21  14  17  1   
 22  17  18  1   
 23  17  19  1   
 24  17  26  1   
 25  19  20  1   
 26  20  21  1   
 27  20  22  1   
 28  20  23  1   
 29  23  24  1   
 30  23  25  1   
 31  23  26  1   
 32  26  27  1   
 33  26  28  1   
 34  29  30  1   
 35  29  31  1   
 36  29  32  1   
 37  33  34  1   
 38  33  38  1   
 39  34  35  1   
 40  34  36  1   
 41  34  37  1   
 42  38  39  1   
 43  40  41  1   
 44  40  42  ar  
 45  42  43  1   
@<TRIPOS>SUBSTRUCTURE
  1 ****  11 GROUP 4 **** **** 0

# MOE 2022.02 (io_trps.svl 2020.11)

@<TRIPOS>MOLECULE
CEP045
42 43 1 0 0 
SMALL
USER_CHARGES


@<TRIPOS>ATOM
  1 H       -2.8180    -7.7350    -0.2780 H     1 <1>   0.1500 
  2 C       -1.9700    -7.0550    -0.2610 C.ar  1 <1>  -0.1500 
  3 C       -0.7030    -7.5090    -0.5730 C.ar  1 <1>  -0.1500 
  4 H       -0.5390    -8.5520    -0.8320 H     1 <1>   0.1500 
  5 C        0.3750    -6.6220    -0.5410 C.ar  1 <1>  -0.1500 
  6 H        1.3530    -7.0480    -0.7520 H     1 <1>   0.1500 
  7 C        0.2300    -5.2530    -0.2130 C.ar  1 <1>   0.1170 
  8 C       -1.0740    -4.7960     0.0970 C.ar  1 <1>   0.1170 
  9 C       -2.1490    -5.7160     0.0730 C.ar  1 <1>  -0.1500 
 10 H       -3.1610    -5.3890     0.3040 H     1 <1>   0.1500 
 11 N       -1.4880    -3.4860     0.4160 N.am  1 <1>  -0.5470 
 12 H       -2.4660    -3.3720     0.6620 H     1 <1>   0.3700 
 13 C       -0.8590    -2.2860     0.4660 C.2   1 <1>   0.5690 
 14 O       -1.5300    -1.3060     0.8020 O.2   1 <1>  -0.5700 
 15 C        0.5870    -2.1610     0.0730 C.3   1 <1>   0.0610 
 16 H        0.6440    -2.2380    -1.0200 H     1 <1>   0.0000 
 17 C        1.1330    -0.7890     0.4770 C.3   1 <1>   0.0000 
 18 H        1.0560    -0.6320     1.5590 H     1 <1>   0.0000 
 19 H        2.1850    -0.6820     0.1920 H     1 <1>   0.0000 
 20 H        0.5750     0.0150    -0.0160 H     1 <1>   0.0000 
 21 C        1.3680    -3.2760     0.7480 C.3   1 <1>   0.3000 
 22 H        0.9410    -3.5810     1.7130 H     1 <1>   0.0000 
 23 H        2.3690    -2.9150     0.9780 H     1 <1>   0.0000 
 24 N        1.4270    -4.4460    -0.1310 N.am  1 <1>  -0.4770 
 25 C        2.5620    -4.7700    -0.8970 C.2   1 <1>   0.5690 
 26 O        2.5040    -5.4380    -1.9350 O.2   1 <1>  -0.5700 
 27 C        3.9320    -4.2410    -0.4400 C.3   1 <1>   0.0610 
 28 H        3.9020    -4.0600     0.6380 H     1 <1>   0.0000 
 29 C        5.0130    -5.3200    -0.6890 C.3   1 <1>   0.0000 
 30 H        4.5540    -6.3130    -0.7690 H     1 <1>   0.0000 
 31 H        5.5300    -5.1400    -1.6380 H     1 <1>   0.0000 
 32 C        6.0380    -5.3990     0.4370 C.3   1 <1>   0.0000 
 33 H        6.7800    -6.1720     0.2140 H     1 <1>   0.0000 
 34 H        5.5550    -5.6610     1.3840 H     1 <1>   0.0000 
 35 H        6.5680    -4.4540     0.5750 H     1 <1>   0.0000 
 36 C        4.2150    -2.9350    -1.2060 C.3   1 <1>   0.0000 
 37 H        3.3350    -2.2840    -1.1730 H     1 <1>   0.0000 
 38 H        4.3780    -3.1520    -2.2700 H     1 <1>   0.0000 
 39 C        5.4030    -2.1530    -0.6690 C.3   1 <1>   0.0000 
 40 H        5.3030    -1.9730     0.4060 H     1 <1>   0.0000 
 41 H        6.3430    -2.6800    -0.8530 H     1 <1>   0.0000 
 42 H        5.4690    -1.1820    -1.1700 H     1 <1>   0.0000 
@<TRIPOS>BOND
  1   1   2  1   
  2   2   3  ar  
  3   2   9  ar  
  4   3   4  1   
  5   3   5  ar  
  6   5   6  1   
  7   5   7  ar  
  8   7   8  ar  
  9   7  24  1   
 10   8   9  ar  
 11   8  11  1   
 12   9  10  1   
 13  11  12  1   
 14  11  13  am  
 15  13  14  2   
 16  13  15  1   
 17  15  16  1   
 18  15  17  1   
 19  15  21  1   
 20  17  18  1   
 21  17  19  1   
 22  17  20  1   
 23  21  22  1   
 24  21  23  1   
 25  21  24  1   
 26  24  25  am  
 27  25  26  2   
 28  25  27  1   
 29  27  28  1   
 30  27  29  1   
 31  27  36  1   
 32  29  30  1   
 33  29  31  1   
 34  29  32  1   
 35  32  33  1   
 36  32  34  1   
 37  32  35  1   
 38  36  37  1   
 39  36  38  1   
 40  36  39  1   
 41  39  40  1   
 42  39  41  1   
 43  39  42  1   
@<TRIPOS>SUBSTRUCTURE
  1 ****  24 GROUP 4 **** **** 0

# MOE 2022.02 (io_trps.svl 2020.11)

@<TRIPOS>MOLECULE
CEP046
38 40 1 0 0 
SMALL
USER_CHARGES


@<TRIPOS>ATOM
  1 H        1.7830     2.3240    -1.7030 H     1 <1>   0.1500 
  2 C        0.8750     2.5040    -1.1350 C.ar  1 <1>  -0.1500 
  3 C        0.0780     3.6090    -1.4270 C.ar  1 <1>  -0.1500 
  4 H        0.3670     4.2930    -2.2210 H     1 <1>   0.1500 
  5 C       -1.0890     3.8450    -0.6980 C.ar  1 <1>  -0.1500 
  6 H       -1.6820     4.7240    -0.9380 H     1 <1>   0.1500 
  7 C       -1.4830     2.9710     0.3260 C.ar  1 <1>  -0.1440 
  8 C       -2.7350     3.1970     1.1550 C.3   1 <1>   0.4440 
  9 H       -3.0410     2.2670     1.6520 H     1 <1>   0.0000 
 10 H       -2.4620     3.8770     1.9720 H     1 <1>   0.0000 
 11 N       -3.9040     3.7310     0.4310 N.am  1 <1>  -0.4770 
 12 C       -4.0290     5.1130     0.4390 C.2   1 <1>   0.5690 
 13 O       -3.2450     5.8540     1.0440 O.2   1 <1>  -0.5700 
 14 C       -5.1300     5.7470    -0.3490 C.3   1 <1>   0.0610 
 15 H       -4.9520     6.8300    -0.3630 H     1 <1>   0.0000 
 16 H       -5.0890     5.4100    -1.3910 H     1 <1>   0.0000 
 17 C       -6.4580     5.4630     0.3090 C.3   1 <1>   0.3690 
 18 H       -7.1770     6.1710    -0.1240 H     1 <1>   0.0000 
 19 C       -6.5030     5.6750     1.8220 C.3   1 <1>   0.0000 
 20 H       -6.1330     6.6700     2.0880 H     1 <1>   0.0000 
 21 H       -5.9120     4.9280     2.3630 H     1 <1>   0.0000 
 22 H       -7.5320     5.5900     2.1880 H     1 <1>   0.0000 
 23 N       -6.9460     4.1450    -0.0200 N.pl3 1 <1>  -0.8690 
 24 H       -7.9550     4.0420    -0.0010 H     1 <1>   0.4000 
 25 C       -6.2160     3.0180    -0.3560 C.ar  1 <1>   0.1000 
 26 C       -6.9910     1.9850    -0.9440 C.ar  1 <1>  -0.1500 
 27 H       -8.0590     2.1330    -1.0930 H     1 <1>   0.1500 
 28 C       -6.4490     0.7700    -1.3520 C.ar  1 <1>  -0.1500 
 29 H       -7.0820     0.0090    -1.7990 H     1 <1>   0.1500 
 30 C       -5.0980     0.5520    -1.1880 C.ar  1 <1>  -0.1500 
 31 H       -4.6480    -0.3840    -1.5070 H     1 <1>   0.1500 
 32 C       -4.3060     1.5500    -0.6150 C.ar  1 <1>  -0.1500 
 33 H       -3.2480     1.3220    -0.5460 H     1 <1>   0.1500 
 34 C       -4.8230     2.8000    -0.1910 C.ar  1 <1>   0.1170 
 35 C       -0.6550     1.8760     0.6250 C.ar  1 <1>  -0.1500 
 36 H       -0.9170     1.1920     1.4300 H     1 <1>   0.1500 
 37 C        0.5110     1.6400    -0.1060 C.ar  1 <1>  -0.1500 
 38 H        1.1370     0.7840     0.1310 H     1 <1>   0.1500 
@<TRIPOS>BOND
  1   1   2  1   
  2   2   3  ar  
  3   2  37  ar  
  4   3   4  1   
  5   3   5  ar  
  6   5   6  1   
  7   5   7  ar  
  8   7   8  1   
  9   7  35  ar  
 10   8   9  1   
 11   8  10  1   
 12   8  11  1   
 13  11  12  am  
 14  11  34  1   
 15  12  13  2   
 16  12  14  1   
 17  14  15  1   
 18  14  16  1   
 19  14  17  1   
 20  17  18  1   
 21  17  19  1   
 22  17  23  1   
 23  19  20  1   
 24  19  21  1   
 25  19  22  1   
 26  23  24  1   
 27  23  25  1   
 28  25  26  ar  
 29  25  34  ar  
 30  26  27  1   
 31  26  28  ar  
 32  28  29  1   
 33  28  30  ar  
 34  30  31  1   
 35  30  32  ar  
 36  32  33  1   
 37  32  34  ar  
 38  35  36  1   
 39  35  37  ar  
 40  37  38  1   
@<TRIPOS>SUBSTRUCTURE
  1 ****  11 GROUP 4 **** **** 0

# MOE 2022.02 (io_trps.svl 2020.11)

@<TRIPOS>MOLECULE
CEP047
35 37 1 0 0 
SMALL
USER_CHARGES


@<TRIPOS>ATOM
  1 H       -7.7490    -1.0720    -0.0180 H     1 <1>   0.1500 
  2 C       -7.3080    -0.0810     0.0060 C.ar  1 <1>  -0.1500 
  3 C       -5.9120     0.0110     0.0140 C.ar  1 <1>  -0.1500 
  4 H       -5.3240    -0.9050    -0.0050 H     1 <1>   0.1500 
  5 C       -5.2780     1.2590     0.0450 C.ar  1 <1>   0.0540 
  6 C       -3.8220     1.3470     0.0500 C.2   1 <1>   0.4620 
  7 N       -3.1310     2.4910     0.0730 N.2   1 <1>  -0.4100 
  8 O       -1.8070     2.0770     0.0670 O.3   1 <1>  -0.0190 
  9 C       -1.7900     0.6950     0.0410 C.2   1 <1>   0.4330 
 10 C       -0.5930    -0.0780     0.0290 C.2   1 <1>   0.0590 
 11 C       -0.6460    -1.4240     0.0160 C.2   1 <1>  -0.1500 
 12 H       -1.5950    -1.9560     0.0150 H     1 <1>   0.1500 
 13 C        0.5540    -2.2290     0.0050 C.2   1 <1>  -0.1500 
 14 H        0.4590    -3.3100    -0.0050 H     1 <1>   0.1500 
 15 C        1.7520    -1.6340     0.0060 C.2   1 <1>  -0.0410 
 16 H        2.6840    -2.1890    -0.0020 H     1 <1>   0.1500 
 17 N        1.8400    -0.2670     0.0190 N.am  1 <1>  -0.5390 
 18 H        2.7470     0.1850     0.0200 H     1 <1>   0.3700 
 19 C        0.7520     0.5820     0.0310 C.2   1 <1>   0.6160 
 20 O        0.9080     1.7990     0.0410 O.2   1 <1>  -0.5700 
 21 N       -3.0310     0.2240     0.0300 N.2   1 <1>  -0.5650 
 22 C       -6.0680     2.4190     0.0700 C.ar  1 <1>  -0.1500 
 23 H       -5.5700     3.3830     0.0930 H     1 <1>   0.1500 
 24 C       -7.4670     2.3370     0.0640 C.ar  1 <1>   0.0820 
 25 O       -8.3060     3.4250     0.0870 O.3   1 <1>  -0.3630 
 26 C       -7.7130     4.7150     0.1500 C.3   1 <1>   0.2800 
 27 H       -7.1270     4.8360     1.0670 H     1 <1>   0.0000 
 28 H       -7.1070     4.9150    -0.7390 H     1 <1>   0.0000 
 29 H       -8.5210     5.4530     0.1740 H     1 <1>   0.0000 
 30 C       -8.0930     1.0750     0.0300 C.ar  1 <1>   0.0820 
 31 O       -9.4650     1.0810     0.0240 O.3   1 <1>  -0.3630 
 32 C      -10.1310    -0.1720    -0.0220 C.3   1 <1>   0.2800 
 33 H      -11.2080     0.0210    -0.0290 H     1 <1>   0.0000 
 34 H       -9.9080    -0.7700     0.8680 H     1 <1>   0.0000 
 35 H       -9.8860    -0.7170    -0.9390 H     1 <1>   0.0000 
@<TRIPOS>BOND
  1   1   2  1   
  2   2   3  ar  
  3   2  30  ar  
  4   3   4  1   
  5   3   5  ar  
  6   5   6  1   
  7   5  22  ar  
  8   6   7  2   
  9   6  21  1   
 10   7   8  1   
 11   8   9  1   
 12   9  10  1   
 13   9  21  2   
 14  10  11  2   
 15  10  19  1   
 16  11  12  1   
 17  11  13  1   
 18  13  14  1   
 19  13  15  2   
 20  15  16  1   
 21  15  17  1   
 22  17  18  1   
 23  17  19  am  
 24  19  20  2   
 25  22  23  1   
 26  22  24  ar  
 27  24  25  1   
 28  24  30  ar  
 29  25  26  1   
 30  26  27  1   
 31  26  28  1   
 32  26  29  1   
 33  30  31  1   
 34  31  32  1   
 35  32  33  1   
 36  32  34  1   
 37  32  35  1   
@<TRIPOS>SUBSTRUCTURE
  1 ****   6 GROUP 4 **** **** 0

# MOE 2022.02 (io_trps.svl 2020.11)

@<TRIPOS>MOLECULE
CEP048
32 34 1 0 0 
SMALL
USER_CHARGES


@<TRIPOS>ATOM
  1 H        2.3730     2.6680    -0.0790 H     1 <1>   0.1500 
  2 C        1.3660     3.0770    -0.0440 C.ar  1 <1>  -0.1500 
  3 C        0.4000     2.4790     0.7690 C.ar  1 <1>  -0.1500 
  4 H        0.6570     1.6060     1.3650 H     1 <1>   0.1500 
  5 C       -0.8930     2.9990     0.8170 C.ar  1 <1>  -0.1500 
  6 H       -1.6390     2.5350     1.4550 H     1 <1>   0.1500 
  7 C       -1.2110     4.1070     0.0330 C.ar  1 <1>   0.0820 
  8 O       -2.4800     4.7080     0.0790 O.3   1 <1>  -0.2320 
  9 C       -3.6210     3.9230    -0.1630 C.2   1 <1>   0.7800 
 10 O       -3.5450     2.7330    -0.4440 O.2   1 <1>  -0.5700 
 11 N       -4.7990     4.6800    -0.0480 N.am  1 <1>  -0.4770 
 12 C       -6.1250     4.1520    -0.2110 C.ar  1 <1>   0.1170 
 13 C       -6.3850     2.8000    -0.4810 C.ar  1 <1>  -0.1500 
 14 H       -5.5950     2.0630    -0.5820 H     1 <1>   0.1500 
 15 C       -7.6920     2.3190    -0.6350 C.ar  1 <1>  -0.1500 
 16 H       -7.8550     1.2640    -0.8440 H     1 <1>   0.1500 
 17 C       -8.7740     3.1810    -0.5210 C.ar  1 <1>  -0.1500 
 18 H       -9.7880     2.8070    -0.6400 H     1 <1>   0.1500 
 19 C       -8.5490     4.5260    -0.2520 C.ar  1 <1>  -0.1500 
 20 H       -9.4020     5.1940    -0.1640 H     1 <1>   0.1500 
 21 C       -7.2400     5.0060    -0.0980 C.ar  1 <1>   0.1170 
 22 N       -7.0950     6.3680     0.1690 N.am  1 <1>  -0.5470 
 23 H       -7.9080     6.9670     0.2400 H     1 <1>   0.3700 
 24 C       -5.8930     6.9760     0.3480 C.2   1 <1>   0.5690 
 25 O       -5.8300     8.1820     0.5820 O.2   1 <1>  -0.5700 
 26 C       -4.6580     6.1040     0.2600 C.3   1 <1>   0.3610 
 27 H       -4.1410     6.1850     1.2250 H     1 <1>   0.0000 
 28 H       -4.0120     6.5490    -0.5080 H     1 <1>   0.0000 
 29 C       -0.2480     4.7240    -0.7660 C.ar  1 <1>  -0.1500 
 30 H       -0.5010     5.6020    -1.3520 H     1 <1>   0.1500 
 31 C        1.0430     4.2010    -0.8080 C.ar  1 <1>  -0.1500 
 32 H        1.8000     4.6680    -1.4330 H     1 <1>   0.1500 
@<TRIPOS>BOND
  1   1   2  1   
  2   2   3  ar  
  3   2  31  ar  
  4   3   4  1   
  5   3   5  ar  
  6   5   6  1   
  7   5   7  ar  
  8   7   8  1   
  9   7  29  ar  
 10   8   9  1   
 11   9  10  2   
 12   9  11  am  
 13  11  12  1   
 14  11  26  1   
 15  12  13  ar  
 16  12  21  ar  
 17  13  14  1   
 18  13  15  ar  
 19  15  16  1   
 20  15  17  ar  
 21  17  18  1   
 22  17  19  ar  
 23  19  20  1   
 24  19  21  ar  
 25  21  22  1   
 26  22  23  1   
 27  22  24  am  
 28  24  25  2   
 29  24  26  1   
 30  26  27  1   
 31  26  28  1   
 32  29  30  1   
 33  29  31  ar  
 34  31  32  1   
@<TRIPOS>SUBSTRUCTURE
  1 ****   9 GROUP 4 **** **** 0

# MOE 2022.02 (io_trps.svl 2020.11)

@<TRIPOS>MOLECULE
CEP049
36 37 1 0 0 
SMALL
USER_CHARGES


@<TRIPOS>ATOM
  1 H       -4.1060     6.4580     0.3300 H     1 <1>   0.1500 
  2 C       -3.4990     5.5580     0.3030 C.ar  1 <1>  -0.1500 
  3 C       -4.1010     4.3240     0.0540 C.ar  1 <1>  -0.1500 
  4 H       -5.1800     4.2950    -0.0830 H     1 <1>   0.1500 
  5 C       -3.3430     3.1420     0.0380 C.ar  1 <1>   0.1170 
  6 N       -4.0420     1.9110    -0.0590 N.am  1 <1>  -0.4770 
  7 C       -5.1120     1.6710    -0.9290 C.2   1 <1>   0.5690 
  8 O       -5.5930     2.4220    -1.7620 O.2   1 <1>  -0.5700 
  9 C       -5.6210     0.2770    -0.6460 C.3   1 <1>   0.0610 
 10 H       -5.8640    -0.2490    -1.5730 H     1 <1>   0.0000 
 11 H       -6.5080     0.3470    -0.0090 H     1 <1>   0.0000 
 12 C       -4.4550    -0.3720     0.0830 C.3   1 <1>   0.0000 
 13 H       -4.7660    -1.1810     0.7490 H     1 <1>   0.0000 
 14 H       -3.7460    -0.7820    -0.6460 H     1 <1>   0.0000 
 15 C       -3.8190     0.7890     0.8220 C.3   1 <1>   0.3000 
 16 H       -4.3570     0.9900     1.7560 H     1 <1>   0.0000 
 17 H       -2.7750     0.5980     1.0620 H     1 <1>   0.0000 
 18 C       -1.9370     3.2220     0.1930 C.ar  1 <1>   0.1170 
 19 N       -1.1510     2.0780    -0.0940 N.am  1 <1>  -0.5470 
 20 H       -1.6520     1.3190    -0.5370 H     1 <1>   0.3700 
 21 C        0.2010     1.8960     0.1430 C.2   1 <1>   0.5690 
 22 O        0.9290     2.6650     0.7610 O.2   1 <1>  -0.5700 
 23 C        0.7240     0.5790    -0.4380 C.3   1 <1>   0.0610 
 24 H        0.3290     0.4790    -1.4570 H     1 <1>   0.0000 
 25 C        0.2420    -0.6030     0.3990 C.3   1 <1>   0.0000 
 26 H       -0.8490    -0.6850     0.3810 H     1 <1>   0.0000 
 27 H        0.6500    -1.5450     0.0180 H     1 <1>   0.0000 
 28 H        0.5460    -0.4970     1.4460 H     1 <1>   0.0000 
 29 C        2.2490     0.5860    -0.5210 C.3   1 <1>   0.0000 
 30 H        2.6170    -0.3280    -0.9990 H     1 <1>   0.0000 
 31 H        2.7040     0.6550     0.4730 H     1 <1>   0.0000 
 32 H        2.6030     1.4400    -1.1080 H     1 <1>   0.0000 
 33 C       -1.3490     4.4640     0.4690 C.ar  1 <1>  -0.1500 
 34 H       -0.2750     4.5690     0.5890 H     1 <1>   0.1500 
 35 C       -2.1290     5.6190     0.5280 C.ar  1 <1>   0.1770 
 36 CL      -1.3890     7.1400     0.8460 Cl    1 <1>  -0.1770 
@<TRIPOS>BOND
  1   1   2  1   
  2   2   3  ar  
  3   2  35  ar  
  4   3   4  1   
  5   3   5  ar  
  6   5   6  1   
  7   5  18  ar  
  8   6   7  am  
  9   6  15  1   
 10   7   8  2   
 11   7   9  1   
 12   9  10  1   
 13   9  11  1   
 14   9  12  1   
 15  12  13  1   
 16  12  14  1   
 17  12  15  1   
 18  15  16  1   
 19  15  17  1   
 20  18  19  1   
 21  18  33  ar  
 22  19  20  1   
 23  19  21  am  
 24  21  22  2   
 25  21  23  1   
 26  23  24  1   
 27  23  25  1   
 28  23  29  1   
 29  25  26  1   
 30  25  27  1   
 31  25  28  1   
 32  29  30  1   
 33  29  31  1   
 34  29  32  1   
 35  33  34  1   
 36  33  35  ar  
 37  35  36  1   
@<TRIPOS>SUBSTRUCTURE
  1 ****  18 GROUP 4 **** **** 0

# MOE 2022.02 (io_trps.svl 2020.11)

@<TRIPOS>MOLECULE
CEP050
28 29 1 0 0 
SMALL
USER_CHARGES


@<TRIPOS>ATOM
  1 H        0.2920    -4.1860     0.0480 H     1 <1>   0.1500 
  2 C        0.7800    -3.2120     0.0450 C.ar  1 <1>  -0.1500 
  3 C        2.1830    -3.2100    -0.0270 C.ar  1 <1>  -0.1500 
  4 H        2.7090    -4.1660    -0.0580 H     1 <1>   0.1500 
  5 C        2.9000    -2.0110    -0.0590 C.ar  1 <1>  -0.1440 
  6 C        4.4090    -2.0090    -0.1070 C.3   1 <1>   1.1640 
  7 F        4.9120    -0.9260    -0.7630 F     1 <1>  -0.3400 
  8 F        4.9260    -3.0990    -0.7360 F     1 <1>  -0.3400 
  9 F        4.9640    -1.9880     1.1340 F     1 <1>  -0.3400 
 10 C        2.1810    -0.8130     0.0040 C.ar  1 <1>  -0.1500 
 11 H        2.7170     0.1380     0.0180 H     1 <1>   0.1500 
 12 C        0.7720    -0.8320     0.0680 C.ar  1 <1>   0.1330 
 13 N        0.1470     0.4610     0.2280 N.pl3 1 <1>   0.9070 
 14 O        0.3470     1.0560     1.2940 O.2   1 <1>  -0.5200 
 15 O       -0.5160     0.8930    -0.7270 O.2   1 <1>  -0.5200 
 16 C        0.0270    -2.0240     0.0830 C.ar  1 <1>   0.1170 
 17 N       -1.3860    -2.1190     0.1430 N.am  1 <1>  -0.1570 
 18 C       -2.1760    -3.2160     0.5240 C.2   1 <1>   0.6160 
 19 O       -1.8620    -4.3350     0.8950 O.2   1 <1>  -0.5700 
 20 C       -3.5930    -2.7660     0.4360 C.2   1 <1>  -0.1360 
 21 H       -4.4380    -3.3810     0.6820 H     1 <1>   0.1500 
 22 C       -3.5390    -1.4980     0.0090 C.2   1 <1>  -0.0380 
 23 C       -4.6860    -0.5900    -0.2530 C.3   1 <1>   0.1380 
 24 H       -4.6910    -0.2720    -1.3010 H     1 <1>   0.0000 
 25 H       -4.6200     0.3010     0.3790 H     1 <1>   0.0000 
 26 H       -5.6430    -1.0810    -0.0450 H     1 <1>   0.0000 
 27 N       -2.2460    -1.1010    -0.1970 N.pl3 1 <1>  -0.5200 
 28 H       -1.9950    -0.1950    -0.5900 H     1 <1>   0.4000 
@<TRIPOS>BOND
  1   1   2  1   
  2   2   3  ar  
  3   2  16  ar  
  4   3   4  1   
  5   3   5  ar  
  6   5   6  1   
  7   5  10  ar  
  8   6   7  1   
  9   6   8  1   
 10   6   9  1   
 11  10  11  1   
 12  10  12  ar  
 13  12  13  1   
 14  12  16  ar  
 15  13  14  2   
 16  13  15  2   
 17  16  17  1   
 18  17  18  am  
 19  17  27  1   
 20  18  19  2   
 21  18  20  1   
 22  20  21  1   
 23  20  22  2   
 24  22  23  1   
 25  22  27  1   
 26  23  24  1   
 27  23  25  1   
 28  23  26  1   
 29  27  28  1   
@<TRIPOS>SUBSTRUCTURE
  1 ****  16 GROUP 4 **** **** 0

# MOE 2022.02 (io_trps.svl 2020.11)

@<TRIPOS>MOLECULE
CEP051
27 30 1 0 0 
SMALL
USER_CHARGES


@<TRIPOS>ATOM
  1 H       -4.1150     0.1110     0.2240 H     1 <1>   0.1500 
  2 C       -3.9780     1.1900     0.1860 C.ar  1 <1>  -0.1500 
  3 C       -5.0850     2.0300     0.1600 C.ar  1 <1>  -0.1500 
  4 H       -6.0890     1.6110     0.1760 H     1 <1>   0.1500 
  5 C       -4.9000     3.4070     0.1110 C.ar  1 <1>  -0.1500 
  6 H       -5.7710     4.0580     0.0900 H     1 <1>   0.1500 
  7 C       -3.6050     3.9340     0.0900 C.ar  1 <1>   0.1170 
  8 C       -2.4670     3.1080     0.1170 C.ar  1 <1>   0.0280 
  9 C       -2.6830     1.7230     0.1650 C.ar  1 <1>  -0.1500 
 10 H       -1.8620     1.0130     0.1880 H     1 <1>   0.1500 
 11 C       -1.1290     3.7520     0.0940 C.2   1 <1>  -0.0590 
 12 C       -1.0250     5.0990     0.0460 C.2   1 <1>   0.1850 
 13 N        0.1910     5.7610     0.0230 N.2   1 <1>  -0.1710 
 14 N        1.2850     5.1380     0.0460 N.2   1 <1>  -0.1260 
 15 C        1.2980     3.7780     0.0960 C.2   1 <1>   0.3120 
 16 N        2.3110     2.9380     0.1270 N.2   1 <1>  -0.5650 
 17 C        1.7100     1.7180     0.1710 C.2   1 <1>   0.3350 
 18 C        2.4800     0.4590     0.2150 C.3   1 <1>   0.1810 
 19 H        2.1960    -0.1370     1.0880 H     1 <1>   0.0000 
 20 H        2.2970    -0.1350    -0.6860 H     1 <1>   0.0000 
 21 H        3.5540     0.6590     0.2770 H     1 <1>   0.0000 
 22 N        0.3760     1.7400     0.1680 N.2   1 <1>  -0.7070 
 23 N        0.0940     3.0700     0.1200 N.pl3 1 <1>   0.6010 
 24 C       -2.2510     5.9600     0.0150 C.2   1 <1>   0.6160 
 25 O       -2.1930     7.1850    -0.0300 O.2   1 <1>  -0.5700 
 26 N       -3.4570     5.3210     0.0400 N.am  1 <1>  -0.5470 
 27 H       -4.2700     5.9240     0.0190 H     1 <1>   0.3700 
@<TRIPOS>BOND
  1   1   2  1   
  2   2   3  ar  
  3   2   9  ar  
  4   3   4  1   
  5   3   5  ar  
  6   5   6  1   
  7   5   7  ar  
  8   7   8  ar  
  9   7  26  1   
 10   8   9  ar  
 11   8  11  1   
 12   9  10  1   
 13  11  12  2   
 14  11  23  1   
 15  12  13  1   
 16  12  24  1   
 17  13  14  2   
 18  14  15  1   
 19  15  16  2   
 20  15  23  1   
 21  16  17  1   
 22  17  18  1   
 23  17  22  2   
 24  18  19  1   
 25  18  20  1   
 26  18  21  1   
 27  22  23  1   
 28  24  25  2   
 29  24  26  am  
 30  26  27  1   
@<TRIPOS>SUBSTRUCTURE
  1 ****  11 GROUP 4 **** **** 0

# MOE 2022.02 (io_trps.svl 2020.11)

@<TRIPOS>MOLECULE
CEP052
32 34 1 0 0 
SMALL
USER_CHARGES


@<TRIPOS>ATOM
  1 H       -4.7240     2.0960     0.0900 H     1 <1>   0.1500 
  2 C       -4.1650     3.0300     0.0600 C.ar  1 <1>  -0.1500 
  3 C       -4.8430     4.2580    -0.0260 C.ar  1 <1>  -0.1440 
  4 C       -6.3450     4.2920    -0.0430 C.3   1 <1>   0.1440 
  5 H       -6.7060     5.1090    -0.6770 H     1 <1>   0.0000 
  6 H       -6.7260     4.4320     0.9730 H     1 <1>   0.0000 
  7 H       -6.7540     3.3610    -0.4490 H     1 <1>   0.0000 
  8 C       -4.1110     5.4560    -0.0420 C.ar  1 <1>  -0.1500 
  9 H       -4.6370     6.4070    -0.0910 H     1 <1>   0.1500 
 10 C       -2.7190     5.4200     0.0030 C.ar  1 <1>   0.1170 
 11 C       -2.0620     4.1850     0.0730 C.ar  1 <1>  -0.0230 
 12 C       -2.7700     2.9860     0.1050 C.ar  1 <1>  -0.1500 
 13 H       -2.2600     2.0270     0.1640 H     1 <1>   0.1500 
 14 N       -0.6640     4.2260     0.1120 N.pl3 1 <1>   0.5930 
 15 N        0.1450     3.1530     0.1790 N.2   1 <1>  -0.7070 
 16 C        1.3700     3.7210     0.1870 C.2   1 <1>   0.4300 
 17 C        2.6220     2.9400     0.2460 C.2   1 <1>   0.8060 
 18 O        2.6710     1.7140     0.3010 O.2   1 <1>  -0.5700 
 19 O        3.7330     3.7410     0.2310 O.3   1 <1>  -0.4300 
 20 C        4.9760     3.0340     0.2790 C.3   1 <1>   0.2800 
 21 H        5.0320     2.4440     1.2010 H     1 <1>   0.0000 
 22 H        5.0580     2.3700    -0.5900 H     1 <1>   0.0000 
 23 C        6.1000     4.0510     0.2520 C.3   1 <1>   0.0000 
 24 H        7.0750     3.5570     0.2870 H     1 <1>   0.0000 
 25 H        6.0450     4.6620    -0.6550 H     1 <1>   0.0000 
 26 H        6.0190     4.7360     1.1030 H     1 <1>   0.0000 
 27 N        1.3390     5.1090     0.1300 N.2   1 <1>  -0.5650 
 28 C        0.0530     5.3850     0.0850 C.2   1 <1>   0.1010 
 29 C       -0.5950     6.6690     0.0150 C.2   1 <1>   0.7150 
 30 O       -0.0250     7.7570    -0.0110 O.2   1 <1>  -0.5700 
 31 N       -1.9790     6.6170    -0.0230 N.am  1 <1>  -0.5470 
 32 H       -2.4510     7.5120    -0.0720 H     1 <1>   0.3700 
@<TRIPOS>BOND
  1   1   2  1   
  2   2   3  ar  
  3   2  12  ar  
  4   3   4  1   
  5   3   8  ar  
  6   4   5  1   
  7   4   6  1   
  8   4   7  1   
  9   8   9  1   
 10   8  10  ar  
 11  10  11  ar  
 12  10  31  1   
 13  11  12  ar  
 14  11  14  1   
 15  12  13  1   
 16  14  15  1   
 17  14  28  1   
 18  15  16  2   
 19  16  17  1   
 20  16  27  1   
 21  17  18  2   
 22  17  19  1   
 23  19  20  1   
 24  20  21  1   
 25  20  22  1   
 26  20  23  1   
 27  23  24  1   
 28  23  25  1   
 29  23  26  1   
 30  27  28  2   
 31  28  29  1   
 32  29  30  2   
 33  29  31  am  
 34  31  32  1   
@<TRIPOS>SUBSTRUCTURE
  1 ****  14 GROUP 4 **** **** 0

# MOE 2022.02 (io_trps.svl 2020.11)

@<TRIPOS>MOLECULE
CEP053
43 44 1 0 0 
SMALL
USER_CHARGES


@<TRIPOS>ATOM
  1 H       -1.8360    -4.2160     0.6690 H     1 <1>   0.5000 
  2 O       -1.0130    -4.3600     0.1560 O.3   1 <1>  -0.6500 
  3 C       -0.2430    -3.3000     0.4660 C.2   1 <1>   0.6590 
  4 O       -0.6680    -2.4470     1.2280 O.2   1 <1>  -0.5700 
  5 C        1.1130    -3.3110    -0.2350 C.3   1 <1>   0.0610 
  6 C        0.8370    -3.2160    -1.7510 C.3   1 <1>   0.0000 
  7 H        0.2860    -4.0880    -2.1210 H     1 <1>   0.0000 
  8 H        1.7540    -3.1230    -2.3410 H     1 <1>   0.0000 
  9 H        0.2170    -2.3390    -1.9760 H     1 <1>   0.0000 
 10 C        1.9390    -2.0760     0.1980 C.3   1 <1>   0.0000 
 11 H        1.7280    -1.7850     1.2340 H     1 <1>   0.0000 
 12 H        1.7250    -1.1950    -0.4170 H     1 <1>   0.0000 
 13 C        3.4110    -2.4740     0.0940 C.3   1 <1>   0.0000 
 14 H        3.9100    -1.8840    -0.6840 H     1 <1>   0.0000 
 15 H        3.9280    -2.2610     1.0370 H     1 <1>   0.0000 
 16 C        3.4450    -3.9690    -0.2570 C.3   1 <1>   0.0610 
 17 H        3.5180    -4.0550    -1.3510 H     1 <1>   0.0000 
 18 C        4.7040    -4.6780     0.2690 C.2   1 <1>   0.5690 
 19 O        4.6500    -5.7250     0.9030 O.2   1 <1>  -0.5700 
 20 N        5.8640    -4.0310    -0.1250 N.am  1 <1>  -0.5470 
 21 H        5.7620    -3.1980    -0.6820 H     1 <1>   0.3700 
 22 C        7.2070    -4.3910     0.1370 C.ar  1 <1>   0.1170 
 23 C        7.5610    -5.5920     0.7630 C.ar  1 <1>  -0.1500 
 24 H        6.8130    -6.2980     1.1080 H     1 <1>   0.1500 
 25 C        8.9030    -5.9340     0.9430 C.ar  1 <1>  -0.1500 
 26 H        9.1600    -6.8740     1.4260 H     1 <1>   0.1500 
 27 C        9.9060    -5.0800     0.4980 C.ar  1 <1>  -0.1500 
 28 H       10.9500    -5.3470     0.6350 H     1 <1>   0.1500 
 29 C        9.5660    -3.8760    -0.1160 C.ar  1 <1>  -0.1500 
 30 H       10.3630    -3.2130    -0.4420 H     1 <1>   0.1500 
 31 C        8.2240    -3.5060    -0.2930 C.ar  1 <1>   0.1000 
 32 N        7.9540    -2.2670    -0.8700 N.pl3 1 <1>  -0.9000 
 33 H        8.7030    -1.7660    -1.3310 H     1 <1>   0.4000 
 34 H        7.0520    -1.8260    -0.8300 H     1 <1>   0.4000 
 35 C        2.0500    -4.5060     0.1900 C.3   1 <1>   0.0000 
 36 C        1.7330    -5.8320    -0.5220 C.3   1 <1>   0.0000 
 37 H        0.7160    -6.1730    -0.3070 H     1 <1>   0.0000 
 38 H        2.4130    -6.6270    -0.1970 H     1 <1>   0.0000 
 39 H        1.8390    -5.7510    -1.6080 H     1 <1>   0.0000 
 40 C        1.9720    -4.7440     1.7200 C.3   1 <1>   0.0000 
 41 H        2.2980    -3.8720     2.2950 H     1 <1>   0.0000 
 42 H        0.9520    -4.9880     2.0350 H     1 <1>   0.0000 
 43 H        2.5860    -5.5920     2.0370 H     1 <1>   0.0000 
@<TRIPOS>BOND
  1   1   2  1   
  2   2   3  1   
  3   3   4  2   
  4   3   5  1   
  5   5   6  1   
  6   5  10  1   
  7   5  35  1   
  8   6   7  1   
  9   6   8  1   
 10   6   9  1   
 11  10  11  1   
 12  10  12  1   
 13  10  13  1   
 14  13  14  1   
 15  13  15  1   
 16  13  16  1   
 17  16  17  1   
 18  16  18  1   
 19  16  35  1   
 20  18  19  2   
 21  18  20  am  
 22  20  21  1   
 23  20  22  1   
 24  22  23  ar  
 25  22  31  ar  
 26  23  24  1   
 27  23  25  ar  
 28  25  26  1   
 29  25  27  ar  
 30  27  28  1   
 31  27  29  ar  
 32  29  30  1   
 33  29  31  ar  
 34  31  32  1   
 35  32  33  1   
 36  32  34  1   
 37  35  36  1   
 38  35  40  1   
 39  36  37  1   
 40  36  38  1   
 41  36  39  1   
 42  40  41  1   
 43  40  42  1   
 44  40  43  1   
@<TRIPOS>SUBSTRUCTURE
  1 ****  18 GROUP 4 **** **** 0

# MOE 2022.02 (io_trps.svl 2020.11)

@<TRIPOS>MOLECULE
CEP054
34 36 1 0 0 
SMALL
USER_CHARGES


@<TRIPOS>ATOM
  1 H       -6.9840     4.8110    -2.5040 H     1 <1>   0.1500 
  2 C       -6.2350     4.2700    -1.9320 C.ar  1 <1>  -0.1500 
  3 C       -5.0140     4.8690    -1.6410 C.ar  1 <1>  -0.1500 
  4 H       -4.8070     5.8770    -1.9920 H     1 <1>   0.1500 
  5 C       -4.0470     4.1750    -0.9060 C.ar  1 <1>  -0.1500 
  6 H       -3.1050     4.6830    -0.7320 H     1 <1>   0.1500 
  7 C       -4.2880     2.8710    -0.4470 C.ar  1 <1>   0.1170 
  8 C       -5.5240     2.2640    -0.7670 C.ar  1 <1>   0.0280 
  9 C       -6.4890     2.9710    -1.4990 C.ar  1 <1>  -0.1500 
 10 H       -7.4450     2.5180    -1.7470 H     1 <1>   0.1500 
 11 C       -5.7610     0.8980    -0.3270 C.2   1 <1>  -0.1670 
 12 C       -4.8320     0.2300     0.3570 C.2   1 <1>  -0.1240 
 13 C       -3.5320     0.8160     0.7150 C.2   1 <1>   0.6160 
 14 O       -2.7100     0.1420     1.3330 O.2   1 <1>  -0.5700 
 15 N       -3.3220     2.1380     0.3250 N.am  1 <1>  -0.4770 
 16 C       -2.0540     2.7400     0.7290 C.3   1 <1>   0.3610 
 17 H       -2.1590     3.8090     0.9320 H     1 <1>   0.0000 
 18 H       -1.7320     2.2780     1.6700 H     1 <1>   0.0000 
 19 C       -0.9580     2.5080    -0.3040 C.2   1 <1>   0.6590 
 20 O       -1.1240     2.4110    -1.5140 O.2   1 <1>  -0.5700 
 21 O        0.2630     2.5110     0.3110 O.3   1 <1>  -0.4300 
 22 C        1.3610     2.3000    -0.5770 C.3   1 <1>   0.2800 
 23 H        1.2600     1.3410    -1.0950 H     1 <1>   0.0000 
 24 H        1.4360     3.1230    -1.2940 H     1 <1>   0.0000 
 25 H        2.2780     2.2750     0.0190 H     1 <1>   0.0000 
 26 C       -5.2570    -1.1470     0.7160 C.3   1 <1>   0.1380 
 27 H       -4.4970    -1.8990     0.4850 H     1 <1>   0.0000 
 28 H       -5.5100    -1.2070     1.7800 H     1 <1>   0.0000 
 29 C       -6.5000    -1.3350    -0.1600 C.3   1 <1>   0.0000 
 30 H       -7.2800    -1.9080     0.3510 H     1 <1>   0.0000 
 31 H       -6.2300    -1.8940    -1.0650 H     1 <1>   0.0000 
 32 C       -6.9800     0.0690    -0.5480 C.3   1 <1>   0.1380 
 33 H       -7.7960     0.4010     0.1040 H     1 <1>   0.0000 
 34 H       -7.3240     0.0800    -1.5870 H     1 <1>   0.0000 
@<TRIPOS>BOND
  1   1   2  1   
  2   2   3  ar  
  3   2   9  ar  
  4   3   4  1   
  5   3   5  ar  
  6   5   6  1   
  7   5   7  ar  
  8   7   8  ar  
  9   7  15  1   
 10   8   9  ar  
 11   8  11  1   
 12   9  10  1   
 13  11  12  2   
 14  11  32  1   
 15  12  13  1   
 16  12  26  1   
 17  13  14  2   
 18  13  15  am  
 19  15  16  1   
 20  16  17  1   
 21  16  18  1   
 22  16  19  1   
 23  19  20  2   
 24  19  21  1   
 25  21  22  1   
 26  22  23  1   
 27  22  24  1   
 28  22  25  1   
 29  26  27  1   
 30  26  28  1   
 31  26  29  1   
 32  29  30  1   
 33  29  31  1   
 34  29  32  1   
 35  32  33  1   
 36  32  34  1   
@<TRIPOS>SUBSTRUCTURE
  1 ****  15 GROUP 4 **** **** 0

# MOE 2022.02 (io_trps.svl 2020.11)

@<TRIPOS>MOLECULE
CEP055
38 39 1 0 0 
SMALL
USER_CHARGES


@<TRIPOS>ATOM
  1 H       -3.9320    -7.1610    -0.1980 H     1 <1>   0.1500 
  2 C       -4.0390    -6.0800    -0.1740 C.ar  1 <1>  -0.1500 
  3 C       -5.2960    -5.5020    -0.1440 C.ar  1 <1>  -0.1500 
  4 H       -6.1860    -6.1250    -0.1570 H     1 <1>   0.1500 
  5 C       -5.4180    -4.1120    -0.1180 C.ar  1 <1>  -0.1500 
  6 H       -6.4240    -3.7000    -0.1400 H     1 <1>   0.1500 
  7 C       -4.2970    -3.2550    -0.1230 C.ar  1 <1>   0.1000 
  8 C       -3.0010    -3.8630    -0.1150 C.ar  1 <1>   0.1170 
  9 C       -2.9050    -5.2690    -0.1560 C.ar  1 <1>  -0.1500 
 10 H       -1.9400    -5.7670    -0.1260 H     1 <1>   0.1500 
 11 N       -1.7840    -3.0870     0.0440 N.am  1 <1>  -0.4770 
 12 C       -0.5740    -3.4970    -0.5320 C.2   1 <1>   0.5690 
 13 O       -0.4550    -4.4390    -1.3230 O.2   1 <1>  -0.5700 
 14 C        0.6760    -2.6860    -0.1590 C.3   1 <1>   0.3610 
 15 H        0.5480    -1.6390    -0.4490 H     1 <1>   0.0000 
 16 H        0.8590    -2.7640     0.9160 H     1 <1>   0.0000 
 17 N        1.8470    -3.2000    -0.8500 N.am  1 <1>  -0.7300 
 18 H        1.6980    -3.9820    -1.4840 H     1 <1>   0.3700 
 19 C        3.1310    -2.7570    -0.7500 C.2   1 <1>   0.5690 
 20 O        4.0280    -3.2890    -1.3990 O.2   1 <1>  -0.5700 
 21 C        3.3940    -1.6040     0.1800 C.3   1 <1>   0.0610 
 22 H        4.4570    -1.3460     0.1510 H     1 <1>   0.0000 
 23 H        2.8140    -0.7310    -0.1310 H     1 <1>   0.0000 
 24 H        3.1290    -1.8810     1.2040 H     1 <1>   0.0000 
 25 C       -1.9180    -1.8550     0.8330 C.3   1 <1>   0.3000 
 26 H       -0.9700    -1.5970     1.3120 H     1 <1>   0.0000 
 27 H       -2.6080    -2.0400     1.6670 H     1 <1>   0.0000 
 28 C       -2.3790    -0.6750    -0.0100 C.3   1 <1>   0.0000 
 29 H       -2.6710     0.1430     0.6600 H     1 <1>   0.0000 
 30 H       -1.5540    -0.2980    -0.6270 H     1 <1>   0.0000 
 31 C       -3.5380    -1.0490    -0.9170 C.3   1 <1>   0.3690 
 32 H       -4.0150    -0.1330    -1.2890 H     1 <1>   0.0000 
 33 H       -3.1770    -1.5680    -1.8150 H     1 <1>   0.0000 
 34 N       -4.5040    -1.8740    -0.2050 N.pl3 1 <1>  -0.8380 
 35 C       -5.6880    -1.2440     0.3570 C.3   1 <1>   0.3690 
 36 H       -5.5220    -0.1730     0.5170 H     1 <1>   0.0000 
 37 H       -6.5410    -1.3500    -0.3200 H     1 <1>   0.0000 
 38 H       -5.9440    -1.6740     1.3320 H     1 <1>   0.0000 
@<TRIPOS>BOND
  1   1   2  1   
  2   2   3  ar  
  3   2   9  ar  
  4   3   4  1   
  5   3   5  ar  
  6   5   6  1   
  7   5   7  ar  
  8   7   8  ar  
  9   7  34  1   
 10   8   9  ar  
 11   8  11  1   
 12   9  10  1   
 13  11  12  am  
 14  11  25  1   
 15  12  13  2   
 16  12  14  1   
 17  14  15  1   
 18  14  16  1   
 19  14  17  1   
 20  17  18  1   
 21  17  19  am  
 22  19  20  2   
 23  19  21  1   
 24  21  22  1   
 25  21  23  1   
 26  21  24  1   
 27  25  26  1   
 28  25  27  1   
 29  25  28  1   
 30  28  29  1   
 31  28  30  1   
 32  28  31  1   
 33  31  32  1   
 34  31  33  1   
 35  31  34  1   
 36  34  35  1   
 37  35  36  1   
 38  35  37  1   
 39  35  38  1   
@<TRIPOS>SUBSTRUCTURE
  1 ****  11 GROUP 4 **** **** 0

# MOE 2022.02 (io_trps.svl 2020.11)

@<TRIPOS>MOLECULE
CEP056
35 37 1 0 0 
SMALL
USER_CHARGES


@<TRIPOS>ATOM
  1 H        8.7210     2.8130     1.0230 H     1 <1>   0.5000 
  2 O        7.9900     3.4650     0.9600 O.3   1 <1>  -0.6500 
  3 C        7.3250     3.0980    -0.1510 C.2   1 <1>   0.6590 
  4 O        7.7180     2.1560    -0.8180 O.2   1 <1>  -0.5700 
  5 C        6.1710     3.9980    -0.4950 C.3   1 <1>   0.0610 
  6 H        5.5440     3.4630    -1.2190 H     1 <1>   0.0000 
  7 H        6.5730     4.8870    -0.9940 H     1 <1>   0.0000 
  8 C        5.3440     4.3820     0.7290 C.3   1 <1>   0.1380 
  9 H        5.9590     4.9350     1.4480 H     1 <1>   0.0000 
 10 H        5.0500     3.4790     1.2800 H     1 <1>   0.0000 
 11 C        4.1160     5.1880     0.3550 C.2   1 <1>  -0.1240 
 12 C        4.0260     6.5420     0.3510 C.2   1 <1>  -0.1380 
 13 C        5.1930     7.4520     0.6610 C.3   1 <1>   0.1380 
 14 H        6.1410     6.9210     0.7750 H     1 <1>   0.0000 
 15 H        5.3500     8.1700    -0.1520 H     1 <1>   0.0000 
 16 H        5.0130     8.0040     1.5890 H     1 <1>   0.0000 
 17 C        2.7510     7.2040     0.0240 C.2   1 <1>   0.0650 
 18 C        2.6330     8.6260     0.0340 C.1   1 <1>   0.4920 
 19 N        2.5260     9.7820     0.0370 N.1   1 <1>  -0.5570 
 20 C        1.6750     6.4600    -0.2800 C.2   1 <1>   0.2090 
 21 N        0.3860     6.8360    -0.6140 N.pl3 1 <1>  -0.6000 
 22 H        0.0440     7.7800    -0.6790 H     1 <1>   0.4000 
 23 C       -0.3440     5.6680    -0.8420 C.ar  1 <1>   0.1000 
 24 C       -1.6630     5.5100    -1.2000 C.ar  1 <1>  -0.1500 
 25 H       -2.3170     6.3600    -1.3520 H     1 <1>   0.1500 
 26 C       -2.1340     4.2020    -1.3630 C.ar  1 <1>  -0.1500 
 27 H       -3.1710     4.0360    -1.6460 H     1 <1>   0.1500 
 28 C       -1.2870     3.0900    -1.1670 C.ar  1 <1>  -0.1500 
 29 H       -1.6840     2.0860    -1.3010 H     1 <1>   0.1500 
 30 C        0.0530     3.2580    -0.8020 C.ar  1 <1>  -0.1500 
 31 H        0.7000     2.4020    -0.6530 H     1 <1>   0.1500 
 32 C        0.5020     4.5510    -0.6460 C.ar  1 <1>   0.1170 
 33 N        1.7710     5.0670    -0.2910 N.am  1 <1>  -0.2860 
 34 C        2.9070     4.3480    -0.0040 C.2   1 <1>   0.6160 
 35 O        3.0000     3.1230    -0.0260 O.2   1 <1>  -0.5700 
@<TRIPOS>BOND
  1   1   2  1   
  2   2   3  1   
  3   3   4  2   
  4   3   5  1   
  5   5   6  1   
  6   5   7  1   
  7   5   8  1   
  8   8   9  1   
  9   8  10  1   
 10   8  11  1   
 11  11  12  2   
 12  11  34  1   
 13  12  13  1   
 14  12  17  1   
 15  13  14  1   
 16  13  15  1   
 17  13  16  1   
 18  17  18  1   
 19  17  20  2   
 20  18  19  3   
 21  20  21  1   
 22  20  33  1   
 23  21  22  1   
 24  21  23  1   
 25  23  24  ar  
 26  23  32  ar  
 27  24  25  1   
 28  24  26  ar  
 29  26  27  1   
 30  26  28  ar  
 31  28  29  1   
 32  28  30  ar  
 33  30  31  1   
 34  30  32  ar  
 35  32  33  1   
 36  33  34  am  
 37  34  35  2   
@<TRIPOS>SUBSTRUCTURE
  1 ****  34 GROUP 4 **** **** 0

# MOE 2022.02 (io_trps.svl 2020.11)

@<TRIPOS>MOLECULE
CEP057
41 44 1 0 0 
SMALL
USER_CHARGES


@<TRIPOS>ATOM
  1 H        2.2980     0.4190    -0.6910 H     1 <1>   0.1500 
  2 C        1.5280    -0.3440    -0.6180 C.ar  1 <1>  -0.1500 
  3 C        0.1920    -0.0030    -0.7350 C.ar  1 <1>  -0.1500 
  4 H       -0.0980     1.0290    -0.9140 H     1 <1>   0.1500 
  5 C       -0.7860    -0.9940    -0.6400 C.ar  1 <1>  -0.1500 
  6 H       -1.8160    -0.6820    -0.7930 H     1 <1>   0.1500 
  7 C       -0.4580    -2.3480    -0.4200 C.ar  1 <1>   0.1170 
  8 C        0.9200    -2.6960    -0.2770 C.ar  1 <1>   0.1170 
  9 C        1.8850    -1.6730    -0.3900 C.ar  1 <1>  -0.1500 
 10 H        2.9430    -1.8810    -0.2520 H     1 <1>   0.1500 
 11 N        1.3680    -4.0240     0.1020 N.am  1 <1>  -0.4770 
 12 C        2.6210    -4.5170    -0.3010 C.2   1 <1>   0.6300 
 13 O        3.3670    -3.9800    -1.1130 O.2   1 <1>  -0.5700 
 14 C        3.0680    -5.8130     0.2970 C.3   1 <1>  -0.1000 
 15 H        3.1950    -5.7750     1.3750 H     1 <1>   0.1000 
 16 C        2.6670    -7.1280    -0.3320 C.3   1 <1>  -0.2000 
 17 H        2.4410    -7.9580     0.3260 H     1 <1>   0.1000 
 18 H        2.0900    -7.1150    -1.2500 H     1 <1>   0.1000 
 19 C        4.0900    -6.6710    -0.4190 C.3   1 <1>  -0.2000 
 20 H        4.8330    -7.1820     0.1830 H     1 <1>   0.1000 
 21 H        4.4610    -6.3370    -1.3830 H     1 <1>   0.1000 
 22 C        0.4440    -4.8090     0.9250 C.3   1 <1>   0.3000 
 23 H        0.9840    -5.5330     1.5410 H     1 <1>   0.0000 
 24 H       -0.0470    -4.1400     1.6430 H     1 <1>   0.0000 
 25 C       -0.5790    -5.5490     0.0790 C.3   1 <1>   0.0000 
 26 H       -1.3680    -5.9290     0.7370 H     1 <1>   0.0000 
 27 H       -0.1260    -6.4230    -0.4010 H     1 <1>   0.0000 
 28 C       -1.1630    -4.6510    -0.9990 C.3   1 <1>   0.3000 
 29 H       -2.0280    -5.1490    -1.4430 H     1 <1>   0.0000 
 30 H       -0.4570    -4.5210    -1.8300 H     1 <1>   0.0000 
 31 N       -1.5250    -3.3310    -0.4750 N.am  1 <1>  -0.4770 
 32 C       -2.8280    -3.0220    -0.0500 C.2   1 <1>   0.6300 
 33 O       -3.1590    -2.0000     0.5410 O.2   1 <1>  -0.5700 
 34 C       -3.8930    -4.0360    -0.3280 C.3   1 <1>  -0.1000 
 35 H       -4.0560    -4.2180    -1.3860 H     1 <1>   0.1000 
 36 C       -5.1570    -4.0630     0.5090 C.3   1 <1>  -0.2000 
 37 H       -6.0920    -4.2770     0.0050 H     1 <1>   0.1000 
 38 H       -5.2510    -3.3550     1.3260 H     1 <1>   0.1000 
 39 C       -4.1520    -5.1650     0.6440 C.3   1 <1>  -0.2000 
 40 H       -4.4070    -6.1360     0.2380 H     1 <1>   0.1000 
 41 H       -3.5830    -5.2010     1.5670 H     1 <1>   0.1000 
@<TRIPOS>BOND
  1   1   2  1   
  2   2   3  ar  
  3   2   9  ar  
  4   3   4  1   
  5   3   5  ar  
  6   5   6  1   
  7   5   7  ar  
  8   7   8  ar  
  9   7  31  1   
 10   8   9  ar  
 11   8  11  1   
 12   9  10  1   
 13  11  12  am  
 14  11  22  1   
 15  12  13  2   
 16  12  14  1   
 17  14  15  1   
 18  14  16  1   
 19  14  19  1   
 20  16  17  1   
 21  16  18  1   
 22  16  19  1   
 23  19  20  1   
 24  19  21  1   
 25  22  23  1   
 26  22  24  1   
 27  22  25  1   
 28  25  26  1   
 29  25  27  1   
 30  25  28  1   
 31  28  29  1   
 32  28  30  1   
 33  28  31  1   
 34  31  32  am  
 35  32  33  2   
 36  32  34  1   
 37  34  35  1   
 38  34  36  1   
 39  34  39  1   
 40  36  37  1   
 41  36  38  1   
 42  36  39  1   
 43  39  40  1   
 44  39  41  1   
@<TRIPOS>SUBSTRUCTURE
  1 ****   7 GROUP 4 **** **** 0

# MOE 2022.02 (io_trps.svl 2020.11)

@<TRIPOS>MOLECULE
CEP058
34 36 1 0 0 
SMALL
USER_CHARGES


@<TRIPOS>ATOM
  1 H       -6.9990    -6.3430     1.4140 H     1 <1>   0.1500 
  2 C       -6.3710    -5.5660     0.9860 C.ar  1 <1>  -0.1500 
  3 C       -6.9350    -4.3870     0.5160 C.ar  1 <1>  -0.1500 
  4 H       -8.0090    -4.2330     0.5800 H     1 <1>   0.1500 
  5 C       -6.1170    -3.4030    -0.0380 C.ar  1 <1>  -0.1500 
  6 H       -6.5780    -2.4840    -0.3910 H     1 <1>   0.1500 
  7 C       -4.7240    -3.5770    -0.1100 C.ar  1 <1>   0.1170 
  8 C       -4.1470    -4.7860     0.3300 C.ar  1 <1>   0.1790 
  9 C       -4.9930    -5.7630     0.8800 C.ar  1 <1>  -0.1500 
 10 H       -4.5640    -6.7080     1.2050 H     1 <1>   0.1500 
 11 N       -2.8170    -5.2020     0.1350 N.2   1 <1>  -0.6290 
 12 C       -1.7970    -4.4080     0.2280 C.2   1 <1>   0.3030 
 13 C       -0.4380    -4.9820    -0.0040 C.ar  1 <1>   0.0860 
 14 C       -0.2870    -5.9900    -0.9600 C.ar  1 <1>  -0.1500 
 15 H       -1.1440    -6.3410    -1.5310 H     1 <1>   0.1500 
 16 C        0.9700    -6.5540    -1.1910 C.ar  1 <1>  -0.1500 
 17 H        1.0790    -7.3350    -1.9400 H     1 <1>   0.1500 
 18 C        2.0860    -6.1280    -0.4670 C.ar  1 <1>   0.0820 
 19 O        3.2530    -6.7640    -0.7890 O.3   1 <1>  -0.3630 
 20 C        4.4180    -6.3740    -0.0730 C.3   1 <1>   0.2800 
 21 H        5.2560    -6.9690    -0.4480 H     1 <1>   0.0000 
 22 H        4.6550    -5.3190    -0.2490 H     1 <1>   0.0000 
 23 H        4.3130    -6.5830     0.9970 H     1 <1>   0.0000 
 24 C        1.9330    -5.1310     0.4970 C.ar  1 <1>  -0.1500 
 25 H        2.7700    -4.7780     1.0910 H     1 <1>   0.1500 
 26 C        0.6740    -4.5610     0.7320 C.ar  1 <1>  -0.1500 
 27 H        0.5840    -3.8090     1.5110 H     1 <1>   0.1500 
 28 C       -1.9150    -2.9490     0.5520 C.3   1 <1>   0.1220 
 29 H       -2.4060    -2.8310     1.5250 H     1 <1>   0.0000 
 30 H       -0.9350    -2.4710     0.6300 H     1 <1>   0.0000 
 31 C       -2.6850    -2.2030    -0.4950 C.2   1 <1>   0.5690 
 32 O       -2.1820    -1.2750    -1.1300 O.2   1 <1>  -0.5700 
 33 N       -4.0060    -2.4980    -0.6540 N.am  1 <1>  -0.5470 
 34 H       -4.5050    -1.8310    -1.2290 H     1 <1>   0.3700 
@<TRIPOS>BOND
  1   1   2  1   
  2   2   3  ar  
  3   2   9  ar  
  4   3   4  1   
  5   3   5  ar  
  6   5   6  1   
  7   5   7  ar  
  8   7   8  ar  
  9   7  33  1   
 10   8   9  ar  
 11   8  11  1   
 12   9  10  1   
 13  11  12  2   
 14  12  13  1   
 15  12  28  1   
 16  13  14  ar  
 17  13  26  ar  
 18  14  15  1   
 19  14  16  ar  
 20  16  17  1   
 21  16  18  ar  
 22  18  19  1   
 23  18  24  ar  
 24  19  20  1   
 25  20  21  1   
 26  20  22  1   
 27  20  23  1   
 28  24  25  1   
 29  24  26  ar  
 30  26  27  1   
 31  28  29  1   
 32  28  30  1   
 33  28  31  1   
 34  31  32  2   
 35  31  33  am  
 36  33  34  1   
@<TRIPOS>SUBSTRUCTURE
  1 ****  12 GROUP 4 **** **** 0

# MOE 2022.02 (io_trps.svl 2020.11)

@<TRIPOS>MOLECULE
CEP059
29 31 1 0 0 
SMALL
USER_CHARGES


@<TRIPOS>ATOM
  1 H        2.1490     2.3930    -1.2050 H     1 <1>   0.4000 
  2 O        1.4120     1.7830    -0.9900 O.3   1 <1>  -0.4360 
  3 N        2.1070     0.6370    -0.5470 N.am  1 <1>  -0.1420 
  4 C        3.4690     0.6990    -0.5160 C.2   1 <1>   0.6300 
  5 O        4.1000     1.6910    -0.8590 O.2   1 <1>  -0.5700 
  6 C        4.1850    -0.5290    -0.0400 C.2   1 <1>  -0.0820 
  7 C        5.6640    -0.5190     0.0190 C.ar  1 <1>   0.0860 
  8 C        6.4050    -1.4900    -0.6630 C.ar  1 <1>  -0.1500 
  9 H        5.9110    -2.2780    -1.2250 H     1 <1>   0.1500 
 10 C        7.7990    -1.4600    -0.6150 C.ar  1 <1>  -0.1500 
 11 H        8.3760    -2.2180    -1.1390 H     1 <1>   0.1500 
 12 C        8.4530    -0.4610     0.1070 C.ar  1 <1>  -0.1500 
 13 H        9.5390    -0.4390     0.1420 H     1 <1>   0.1500 
 14 C        7.7150     0.5100     0.7830 C.ar  1 <1>  -0.1500 
 15 H        8.2260     1.2900     1.3420 H     1 <1>   0.1500 
 16 C        6.3200     0.4840     0.7400 C.ar  1 <1>  -0.1500 
 17 H        5.7600     1.2520     1.2680 H     1 <1>   0.1500 
 18 N        3.5000    -1.5950     0.3190 N.pl3 1 <1>   0.6570 
 19 O        4.0920    -2.6460     0.7440 O.2   1 <1>  -0.6330 
 20 C        2.0450    -1.6030     0.2580 C.ar  1 <1>  -0.0280 
 21 C        1.3350    -2.7510     0.6400 C.ar  1 <1>  -0.1500 
 22 H        1.8580    -3.6420     0.9830 H     1 <1>   0.1500 
 23 C       -0.0590    -2.7600     0.5820 C.ar  1 <1>  -0.1500 
 24 H       -0.6100    -3.6500     0.8780 H     1 <1>   0.1500 
 25 C       -0.7440    -1.6270     0.1460 C.ar  1 <1>  -0.1500 
 26 H       -1.8310    -1.6320     0.1010 H     1 <1>   0.1500 
 27 C       -0.0370    -0.4850    -0.2330 C.ar  1 <1>  -0.1500 
 28 H       -0.5850     0.3910    -0.5710 H     1 <1>   0.1500 
 29 C        1.3610    -0.4740    -0.1770 C.ar  1 <1>   0.1170 
@<TRIPOS>BOND
  1   1   2  1   
  2   2   3  1   
  3   3   4  am  
  4   3  29  1   
  5   4   5  2   
  6   4   6  1   
  7   6   7  1   
  8   6  18  2   
  9   7   8  ar  
 10   7  16  ar  
 11   8   9  1   
 12   8  10  ar  
 13  10  11  1   
 14  10  12  ar  
 15  12  13  1   
 16  12  14  ar  
 17  14  15  1   
 18  14  16  ar  
 19  16  17  1   
 20  18  19  2   
 21  18  20  1   
 22  20  21  ar  
 23  20  29  ar  
 24  21  22  1   
 25  21  23  ar  
 26  23  24  1   
 27  23  25  ar  
 28  25  26  1   
 29  25  27  ar  
 30  27  28  1   
 31  27  29  ar  
@<TRIPOS>SUBSTRUCTURE
  1 ****   6 GROUP 4 **** **** 0

# MOE 2022.02 (io_trps.svl 2020.11)

@<TRIPOS>MOLECULE
CEP060
30 31 1 0 0 
SMALL
USER_CHARGES


@<TRIPOS>ATOM
  1 H       -0.5040    -3.4950     0.1360 H     1 <1>   0.1500 
  2 C       -1.3420    -2.8100     0.0800 C.ar  1 <1>  -0.1500 
  3 C       -2.6160    -3.3450     0.1100 C.ar  1 <1>   0.0820 
  4 C       -3.7400    -2.5610     0.0510 C.ar  1 <1>   0.0820 
  5 C       -3.6590    -1.1930    -0.0450 C.ar  1 <1>  -0.1500 
  6 H       -4.5680    -0.5990    -0.0920 H     1 <1>   0.1500 
  7 C       -2.3730    -0.6170    -0.0790 C.ar  1 <1>   0.1330 
  8 N       -2.3070     0.8460    -0.1960 N.pl3 1 <1>   0.9070 
  9 O       -1.2470     1.4060     0.1220 O.2   1 <1>  -0.5200 
 10 O       -3.3140     1.4390    -0.6080 O.2   1 <1>  -0.5200 
 11 C       -1.1900    -1.4160    -0.0150 C.ar  1 <1>   0.1170 
 12 N        0.0980    -0.8220    -0.0440 N.am  1 <1>  -0.5470 
 13 H        0.1420     0.2030    -0.0700 H     1 <1>   0.3700 
 14 C        1.3360    -1.4450    -0.0350 C.2   1 <1>   0.6300 
 15 O        1.5730    -2.6420    -0.0070 O.2   1 <1>  -0.5700 
 16 C        2.4920    -0.4170    -0.0720 C.2   1 <1>   0.7200 
 17 O        2.2720     0.7790    -0.1800 O.2   1 <1>  -0.5700 
 18 O        3.6900    -1.0220     0.0320 O.3   1 <1>  -0.4300 
 19 C        4.8070    -0.1280     0.0070 C.3   1 <1>   0.2800 
 20 H        4.8230     0.4160    -0.9450 H     1 <1>   0.0000 
 21 H        4.7310     0.5850     0.8360 H     1 <1>   0.0000 
 22 C        6.0740    -0.9470     0.1510 C.3   1 <1>   0.0000 
 23 H        6.1540    -1.6800    -0.6590 H     1 <1>   0.0000 
 24 H        6.9590    -0.3040     0.1350 H     1 <1>   0.0000 
 25 H        6.0640    -1.5110     1.0900 H     1 <1>   0.0000 
 26 O       -4.8860    -3.2880     0.0970 O.3   1 <1>  -0.3630 
 27 C       -4.3570    -4.6280     0.1930 C.3   1 <1>   0.5600 
 28 H       -4.7200    -5.2110    -0.6620 H     1 <1>   0.0000 
 29 H       -4.7280    -5.0870     1.1170 H     1 <1>   0.0000 
 30 O       -2.9150    -4.6690     0.2030 O.3   1 <1>  -0.3630 
@<TRIPOS>BOND
  1   1   2  1   
  2   2   3  ar  
  3   2  11  ar  
  4   3   4  ar  
  5   3  30  1   
  6   4   5  ar  
  7   4  26  1   
  8   5   6  1   
  9   5   7  ar  
 10   7   8  1   
 11   7  11  ar  
 12   8   9  2   
 13   8  10  2   
 14  11  12  1   
 15  12  13  1   
 16  12  14  am  
 17  14  15  2   
 18  14  16  1   
 19  16  17  2   
 20  16  18  1   
 21  18  19  1   
 22  19  20  1   
 23  19  21  1   
 24  19  22  1   
 25  22  23  1   
 26  22  24  1   
 27  22  25  1   
 28  26  27  1   
 29  27  28  1   
 30  27  29  1   
 31  27  30  1   
@<TRIPOS>SUBSTRUCTURE
  1 ****  11 GROUP 4 **** **** 0

# MOE 2022.02 (io_trps.svl 2020.11)

@<TRIPOS>MOLECULE
CEP061
36 37 1 0 0 
SMALL
USER_CHARGES


@<TRIPOS>ATOM
  1 H       -0.5600     0.6640     1.8290 H     1 <1>   0.1500 
  2 C       -0.8640    -0.2990     1.4290 C.ar  1 <1>  -0.1500 
  3 C       -2.1930    -0.6880     1.4680 C.ar  1 <1>  -0.1500 
  4 H       -2.9420    -0.0330     1.9070 H     1 <1>   0.1500 
  5 C       -2.5720    -1.9270     0.9440 C.ar  1 <1>  -0.1500 
  6 H       -3.6240    -2.1900     1.0280 H     1 <1>   0.1500 
  7 C       -1.6320    -2.8150     0.3810 C.ar  1 <1>   0.1170 
  8 C       -0.2750    -2.4040     0.3340 C.ar  1 <1>   0.1790 
  9 C        0.0800    -1.1500     0.8600 C.ar  1 <1>  -0.1500 
 10 H        1.1190    -0.8290     0.8050 H     1 <1>   0.1500 
 11 N        0.7810    -3.0830    -0.3080 N.2   1 <1>  -0.6290 
 12 C        0.9350    -4.3610    -0.1730 C.2   1 <1>   0.3280 
 13 C        2.0930    -5.0260    -0.8740 C.3   1 <1>   0.1220 
 14 H        1.7070    -5.8630    -1.4640 H     1 <1>   0.0000 
 15 H        2.5620    -4.3000    -1.5470 H     1 <1>   0.0000 
 16 C        3.1350    -5.5410     0.0770 C.2   1 <1>   0.6590 
 17 O        3.0030    -5.6150     1.2910 O.2   1 <1>  -0.5700 
 18 O        4.2340    -5.9500    -0.6180 O.3   1 <1>  -0.4300 
 19 C        5.2840    -6.4670     0.2010 C.3   1 <1>   0.2800 
 20 H        4.9470    -7.3620     0.7330 H     1 <1>   0.0000 
 21 H        5.6330    -5.7040     0.9050 H     1 <1>   0.0000 
 22 H        6.1170    -6.7440    -0.4510 H     1 <1>   0.0000 
 23 C       -0.0150    -5.2100     0.6090 C.3   1 <1>   0.1220 
 24 H       -0.1330    -4.8280     1.6280 H     1 <1>   0.0000 
 25 H        0.3710    -6.2310     0.6880 H     1 <1>   0.0000 
 26 C       -1.3370    -5.2510    -0.0990 C.2   1 <1>   0.5690 
 27 O       -1.7460    -6.3150    -0.5770 O.2   1 <1>  -0.5700 
 28 N       -2.0900    -4.0820    -0.1240 N.am  1 <1>  -0.4770 
 29 C       -3.4310    -4.1720    -0.7150 C.3   1 <1>   0.3610 
 30 H       -3.3960    -4.8320    -1.5900 H     1 <1>   0.0000 
 31 H       -3.7680    -3.1960    -1.0810 H     1 <1>   0.0000 
 32 C       -4.4570    -4.7430     0.2650 C.2   1 <1>   0.5690 
 33 O       -5.3340    -4.0660     0.7950 O.2   1 <1>  -0.5700 
 34 N       -4.3450    -6.0780     0.5270 N.am  1 <1>  -0.8000 
 35 H       -3.6050    -6.6390     0.1080 H     1 <1>   0.3700 
 36 H       -5.0040    -6.5150     1.1560 H     1 <1>   0.3700 
@<TRIPOS>BOND
  1   1   2  1   
  2   2   3  ar  
  3   2   9  ar  
  4   3   4  1   
  5   3   5  ar  
  6   5   6  1   
  7   5   7  ar  
  8   7   8  ar  
  9   7  28  1   
 10   8   9  ar  
 11   8  11  1   
 12   9  10  1   
 13  11  12  2   
 14  12  13  1   
 15  12  23  1   
 16  13  14  1   
 17  13  15  1   
 18  13  16  1   
 19  16  17  2   
 20  16  18  1   
 21  18  19  1   
 22  19  20  1   
 23  19  21  1   
 24  19  22  1   
 25  23  24  1   
 26  23  25  1   
 27  23  26  1   
 28  26  27  2   
 29  26  28  am  
 30  28  29  1   
 31  29  30  1   
 32  29  31  1   
 33  29  32  1   
 34  32  33  2   
 35  32  34  am  
 36  34  35  1   
 37  34  36  1   
@<TRIPOS>SUBSTRUCTURE
  1 ****  23 GROUP 4 **** **** 0

# MOE 2022.02 (io_trps.svl 2020.11)

@<TRIPOS>MOLECULE
CEP062
32 34 1 0 0 
SMALL
USER_CHARGES


@<TRIPOS>ATOM
  1 H        3.8690    -3.0600     0.5720 H     1 <1>   0.4500 
  2 O        4.4440    -2.3160     0.8090 O.3   1 <1>  -0.5270 
  3 C        3.8040    -1.1170     0.5460 C.2   1 <1>   0.0480 
  4 C        4.5060     0.0030     0.3080 C.2   1 <1>   0.0290 
  5 C        5.9850    -0.0230     0.4090 C.2   1 <1>   0.6160 
  6 O        6.5910     0.5940     1.2800 O.2   1 <1>  -0.5700 
  7 N        6.6090    -0.7850    -0.5710 N.am  1 <1>  -0.4210 
  8 H        6.0650    -1.3020    -1.2570 H     1 <1>   0.3700 
  9 N        8.0180    -0.8510    -0.6140 N.3   1 <1>  -0.7290 
 10 H        8.3280    -1.0970     0.3340 H     1 <1>   0.3600 
 11 H        8.3540     0.1140    -0.7170 H     1 <1>   0.3600 
 12 C        3.8340     1.2730    -0.0600 C.2   1 <1>   0.6160 
 13 O        4.5020     2.2580    -0.3720 O.2   1 <1>  -0.5700 
 14 N        2.4450     1.2680    -0.0980 N.am  1 <1>  -0.4770 
 15 C        1.6740     0.1080     0.1940 C.ar  1 <1>   0.1170 
 16 C        0.2650     0.1680     0.1640 C.ar  1 <1>  -0.1440 
 17 C       -0.4850    -0.9770     0.4570 C.ar  1 <1>  -0.1500 
 18 H       -1.5730    -0.9460     0.4240 H     1 <1>   0.1500 
 19 C        0.1520    -2.1560     0.8200 C.ar  1 <1>  -0.1500 
 20 H       -0.4380    -3.0340     1.0770 H     1 <1>   0.1500 
 21 C        1.5450    -2.2120     0.8670 C.ar  1 <1>  -0.1500 
 22 H        1.9880    -3.1480     1.1960 H     1 <1>   0.1500 
 23 C        2.3280    -1.0940     0.5290 C.ar  1 <1>   0.0280 
 24 C       -0.4560     1.4370    -0.2050 C.3   1 <1>   0.1440 
 25 H       -0.6770     1.4180    -1.2790 H     1 <1>   0.0000 
 26 H       -1.4090     1.5050     0.3320 H     1 <1>   0.0000 
 27 C        0.3910     2.6480     0.1410 C.3   1 <1>   0.0000 
 28 H       -0.0940     3.5630    -0.2170 H     1 <1>   0.0000 
 29 H        0.4910     2.7360     1.2310 H     1 <1>   0.0000 
 30 C        1.7650     2.5000    -0.4870 C.3   1 <1>   0.3000 
 31 H        2.3780     3.3660    -0.2120 H     1 <1>   0.0000 
 32 H        1.6920     2.4960    -1.5820 H     1 <1>   0.0000 
@<TRIPOS>BOND
  1   1   2  1   
  2   2   3  1   
  3   3   4  2   
  4   3  23  1   
  5   4   5  1   
  6   4  12  1   
  7   5   6  2   
  8   5   7  am  
  9   7   8  1   
 10   7   9  1   
 11   9  10  1   
 12   9  11  1   
 13  12  13  2   
 14  12  14  am  
 15  14  15  1   
 16  14  30  1   
 17  15  16  ar  
 18  15  23  ar  
 19  16  17  ar  
 20  16  24  1   
 21  17  18  1   
 22  17  19  ar  
 23  19  20  1   
 24  19  21  ar  
 25  21  22  1   
 26  21  23  ar  
 27  24  25  1   
 28  24  26  1   
 29  24  27  1   
 30  27  28  1   
 31  27  29  1   
 32  27  30  1   
 33  30  31  1   
 34  30  32  1   
@<TRIPOS>SUBSTRUCTURE
  1 ****  15 GROUP 4 **** **** 0

# MOE 2022.02 (io_trps.svl 2020.11)

@<TRIPOS>MOLECULE
CEP063
39 40 1 0 0 
SMALL
USER_CHARGES


@<TRIPOS>ATOM
  1 H        0.5150    -3.8770     0.2500 H     1 <1>   0.1500 
  2 C       -0.0230    -2.9370     0.3020 C.2   1 <1>  -0.0410 
  3 C       -1.3510    -2.9560     0.4750 C.2   1 <1>  -0.2880 
  4 H       -1.8610    -3.9150     0.5500 H     1 <1>   0.1500 
  5 C       -2.1980    -1.7130     0.5330 C.3   1 <1>   0.1990 
  6 H       -2.4790    -1.5590     1.5830 H     1 <1>   0.0000 
  7 C       -3.4930    -1.8750    -0.2870 C.2   1 <1>   0.5690 
  8 O       -3.6090    -2.7280    -1.1620 O.2   1 <1>  -0.5700 
  9 N       -4.4660    -0.9560     0.0870 N.am  1 <1>  -0.5470 
 10 H       -4.2290    -0.3220     0.8390 H     1 <1>   0.3700 
 11 C       -5.7570    -0.8010    -0.4590 C.ar  1 <1>   0.1170 
 12 C       -6.2630    -1.5750    -1.5080 C.ar  1 <1>  -0.1500 
 13 H       -5.6770    -2.3590    -1.9770 H     1 <1>   0.1500 
 14 C       -7.5580    -1.3560    -1.9900 C.ar  1 <1>  -0.1500 
 15 H       -7.9510    -1.9570    -2.8040 H     1 <1>   0.1500 
 16 C       -8.3460    -0.3630    -1.4230 C.ar  1 <1>   0.1900 
 17 F       -9.5850    -0.1550    -1.8860 F     1 <1>  -0.1900 
 18 C       -7.8630     0.4170    -0.3820 C.ar  1 <1>  -0.1500 
 19 H       -8.4940     1.1890     0.0470 H     1 <1>   0.1500 
 20 C       -6.5690     0.1990     0.0990 C.ar  1 <1>  -0.1500 
 21 H       -6.2100     0.8210     0.9160 H     1 <1>   0.1500 
 22 C       -1.4250    -0.4960     0.0200 C.3   1 <1>   0.0000 
 23 H       -1.9250     0.4310     0.3230 H     1 <1>   0.0000 
 24 H       -1.4080    -0.4960    -1.0790 H     1 <1>   0.0000 
 25 C        0.0060    -0.5050     0.5430 C.3   1 <1>   0.3000 
 26 H        0.5460     0.3460     0.1130 H     1 <1>   0.0000 
 27 H        0.0190    -0.3790     1.6330 H     1 <1>   0.0000 
 28 N        0.7060    -1.7590     0.2430 N.am  1 <1>  -0.4690 
 29 C        2.0780    -1.6580    -0.0210 C.2   1 <1>   0.6900 
 30 O        2.7180    -0.6260     0.1800 O.2   1 <1>  -0.5700 
 31 N        2.6730    -2.7770    -0.5450 N.am  1 <1>  -0.7300 
 32 H        2.0990    -3.5410    -0.8590 H     1 <1>   0.3700 
 33 C        4.1050    -2.8630    -0.7380 C.3   1 <1>   0.3000 
 34 H        4.3260    -2.4490    -1.7270 H     1 <1>   0.0000 
 35 H        4.6160    -2.2470     0.0090 H     1 <1>   0.0000 
 36 C        4.5900    -4.2970    -0.6480 C.3   1 <1>   0.0000 
 37 H        4.1060    -4.9240    -1.4040 H     1 <1>   0.0000 
 38 H        4.3640    -4.7250     0.3340 H     1 <1>   0.0000 
 39 H        5.6720    -4.3450    -0.8040 H     1 <1>   0.0000 
@<TRIPOS>BOND
  1   1   2  1   
  2   2   3  2   
  3   2  28  1   
  4   3   4  1   
  5   3   5  1   
  6   5   6  1   
  7   5   7  1   
  8   5  22  1   
  9   7   8  2   
 10   7   9  am  
 11   9  10  1   
 12   9  11  1   
 13  11  12  ar  
 14  11  20  ar  
 15  12  13  1   
 16  12  14  ar  
 17  14  15  1   
 18  14  16  ar  
 19  16  17  1   
 20  16  18  ar  
 21  18  19  1   
 22  18  20  ar  
 23  20  21  1   
 24  22  23  1   
 25  22  24  1   
 26  22  25  1   
 27  25  26  1   
 28  25  27  1   
 29  25  28  1   
 30  28  29  am  
 31  29  30  2   
 32  29  31  am  
 33  31  32  1   
 34  31  33  1   
 35  33  34  1   
 36  33  35  1   
 37  33  36  1   
 38  36  37  1   
 39  36  38  1   
 40  36  39  1   
@<TRIPOS>SUBSTRUCTURE
  1 ****   5 GROUP 4 **** **** 0

# MOE 2022.02 (io_trps.svl 2020.11)

@<TRIPOS>MOLECULE
CEP064
31 32 1 0 0 
SMALL
USER_CHARGES


@<TRIPOS>ATOM
  1 H       -2.6520    -7.6600    -0.2460 H     1 <1>   0.1500 
  2 C       -2.2770    -6.6420    -0.1630 C.ar  1 <1>  -0.1500 
  3 C       -3.1680    -5.5830    -0.0260 C.ar  1 <1>  -0.1500 
  4 H       -4.2390    -5.7710     0.0000 H     1 <1>   0.1500 
  5 C       -2.6790    -4.2850     0.0790 C.ar  1 <1>  -0.1500 
  6 H       -3.3920    -3.4690     0.1880 H     1 <1>   0.1500 
  7 C       -1.2900    -4.0480     0.0460 C.ar  1 <1>   0.1330 
  8 N       -0.8430    -2.6510     0.1770 N.pl3 1 <1>   0.9070 
  9 O        0.3480    -2.3930    -0.0590 O.2   1 <1>  -0.5200 
 10 O       -1.6800    -1.8050     0.5210 O.2   1 <1>  -0.5200 
 11 C       -0.3700    -5.1150    -0.0950 C.ar  1 <1>   0.1170 
 12 N        1.0300    -4.8800    -0.1340 N.am  1 <1>  -0.5470 
 13 H        1.3140    -3.8990    -0.0990 H     1 <1>   0.3700 
 14 C        2.0660    -5.8000    -0.2020 C.2   1 <1>   0.5690 
 15 O        1.9520    -7.0220    -0.2070 O.2   1 <1>  -0.5700 
 16 C        3.4330    -5.1400    -0.2820 C.3   1 <1>   0.2910 
 17 H        4.1670    -5.8830    -0.6100 H     1 <1>   0.0000 
 18 H        3.3990    -4.3320    -1.0200 H     1 <1>   0.0000 
 19 S        3.8840    -4.4940     1.3570 S.3   1 <1>  -0.2860 
 20 C        5.3640    -3.7130     0.9700 C.2   1 <1>   0.2420 
 21 N        5.9400    -3.5980    -0.2000 N.2   1 <1>  -0.5650 
 22 C        7.0730    -2.8790     0.0950 C.2   1 <1>   0.3350 
 23 C        8.0530    -2.4950    -0.9410 C.3   1 <1>   0.1810 
 24 H        8.2120    -3.3220    -1.6410 H     1 <1>   0.0000 
 25 H        9.0200    -2.2340    -0.5000 H     1 <1>   0.0000 
 26 H        7.6870    -1.6320    -1.5050 H     1 <1>   0.0000 
 27 N        7.2130    -2.5450     1.3860 N.2   1 <1>  -0.7070 
 28 N        6.1090    -3.0940     1.9220 N.pl3 1 <1>   0.3000 
 29 H        5.9280    -3.0100     2.9150 H     1 <1>   0.2700 
 30 C       -0.8970    -6.4100    -0.1970 C.ar  1 <1>  -0.1500 
 31 H       -0.2580    -7.2810    -0.3110 H     1 <1>   0.1500 
@<TRIPOS>BOND
  1   1   2  1   
  2   2   3  ar  
  3   2  30  ar  
  4   3   4  1   
  5   3   5  ar  
  6   5   6  1   
  7   5   7  ar  
  8   7   8  1   
  9   7  11  ar  
 10   8   9  2   
 11   8  10  2   
 12  11  12  1   
 13  11  30  ar  
 14  12  13  1   
 15  12  14  am  
 16  14  15  2   
 17  14  16  1   
 18  16  17  1   
 19  16  18  1   
 20  16  19  1   
 21  19  20  1   
 22  20  21  2   
 23  20  28  1   
 24  21  22  1   
 25  22  23  1   
 26  22  27  2   
 27  23  24  1   
 28  23  25  1   
 29  23  26  1   
 30  27  28  1   
 31  28  29  1   
 32  30  31  1   
@<TRIPOS>SUBSTRUCTURE
  1 ****  12 GROUP 4 **** **** 0

# MOE 2022.02 (io_trps.svl 2020.11)

@<TRIPOS>MOLECULE
CEP065
34 36 1 0 0 
SMALL
USER_CHARGES


@<TRIPOS>ATOM
  1 H        7.1340     0.3120     1.1720 H     1 <1>   0.4500 
  2 O        7.7490    -0.3920     0.8930 O.3   1 <1>  -0.5130 
  3 C        7.0150    -1.4250     0.4920 C.2   1 <1>  -0.0890 
  4 C        5.6400    -1.5470     0.4450 C.2   1 <1>  -0.1500 
  5 H        4.9370    -0.7890     0.7600 H     1 <1>   0.1500 
  6 C        5.3350    -2.8290    -0.0500 C.2   1 <1>   0.0830 
  7 N        4.1310    -3.4090    -0.2450 N.pl3 1 <1>  -0.5830 
  8 H        4.1120    -4.4180    -0.3730 H     1 <1>   0.4000 
  9 C        2.8310    -2.8610    -0.3240 C.ar  1 <1>   0.1000 
 10 C        2.5820    -1.5380    -0.7110 C.ar  1 <1>  -0.1500 
 11 H        3.3950    -0.8970    -1.0370 H     1 <1>   0.1500 
 12 C        1.2790    -1.0280    -0.7430 C.ar  1 <1>  -0.1500 
 13 H        1.1030    -0.0060    -1.0660 H     1 <1>   0.1500 
 14 C        0.2090    -1.8380    -0.3810 C.ar  1 <1>   0.0820 
 15 C        0.4410    -3.1490     0.0390 C.ar  1 <1>   0.0820 
 16 C        1.7400    -3.6590     0.0540 C.ar  1 <1>  -0.1500 
 17 H        1.8960    -4.6810     0.3880 H     1 <1>   0.1500 
 18 O       -0.5590    -3.9960     0.4460 O.3   1 <1>  -0.3630 
 19 C       -1.7690    -3.2790     0.7170 C.3   1 <1>   0.2800 
 20 H       -1.6690    -2.7800     1.6890 H     1 <1>   0.0000 
 21 H       -2.5780    -4.0120     0.7910 H     1 <1>   0.0000 
 22 C       -2.0620    -2.2830    -0.3930 C.3   1 <1>   0.2800 
 23 H       -3.0140    -1.7770    -0.2050 H     1 <1>   0.0000 
 24 H       -2.1250    -2.7780    -1.3700 H     1 <1>   0.0000 
 25 O       -1.0420    -1.2810    -0.4550 O.3   1 <1>  -0.3630 
 26 C        6.5260    -3.4730    -0.2610 C.2   1 <1>  -0.3020 
 27 H        6.7410    -4.4720    -0.6190 H     1 <1>   0.1500 
 28 N        7.5800    -2.6190     0.0460 N.pl3 1 <1>   0.2940 
 29 C        8.9360    -2.9790    -0.0950 C.2   1 <1>   0.5180 
 30 O        9.2170    -4.1060    -0.4950 O.2   1 <1>  -0.5700 
 31 C        9.9560    -1.9440     0.2600 C.3   1 <1>   0.0610 
 32 H       10.9530    -2.3600     0.0840 H     1 <1>   0.0000 
 33 H        9.8510    -1.0620    -0.3770 H     1 <1>   0.0000 
 34 H        9.8910    -1.6840     1.3190 H     1 <1>   0.0000 
@<TRIPOS>BOND
  1   1   2  1   
  2   2   3  1   
  3   3   4  2   
  4   3  28  1   
  5   4   5  1   
  6   4   6  1   
  7   6   7  1   
  8   6  26  2   
  9   7   8  1   
 10   7   9  1   
 11   9  10  ar  
 12   9  16  ar  
 13  10  11  1   
 14  10  12  ar  
 15  12  13  1   
 16  12  14  ar  
 17  14  15  ar  
 18  14  25  1   
 19  15  16  ar  
 20  15  18  1   
 21  16  17  1   
 22  18  19  1   
 23  19  20  1   
 24  19  21  1   
 25  19  22  1   
 26  22  23  1   
 27  22  24  1   
 28  22  25  1   
 29  26  27  1   
 30  26  28  1   
 31  28  29  1   
 32  29  30  2   
 33  29  31  1   
 34  31  32  1   
 35  31  33  1   
 36  31  34  1   
@<TRIPOS>SUBSTRUCTURE
  1 ****   7 GROUP 4 **** **** 0

# MOE 2022.02 (io_trps.svl 2020.11)

@<TRIPOS>MOLECULE
CEP066
37 39 1 0 0 
SMALL
USER_CHARGES


@<TRIPOS>ATOM
  1 H       -0.2890    -0.0150    -0.7800 H     1 <1>   0.1500 
  2 C       -0.8660     0.8660    -0.5050 C.ar  1 <1>  -0.1500 
  3 C       -2.2430     0.7560    -0.2640 C.ar  1 <1>  -0.1440 
  4 C       -2.9080    -0.5880    -0.3900 C.3   1 <1>   0.1440 
  5 H       -3.6350    -0.5750    -1.2090 H     1 <1>   0.0000 
  6 H       -3.4140    -0.8530     0.5440 H     1 <1>   0.0000 
  7 H       -2.1810    -1.3780    -0.6030 H     1 <1>   0.0000 
  8 C       -2.9700     1.9100     0.0760 C.ar  1 <1>  -0.1440 
  9 C       -4.4500     1.8510     0.3470 C.3   1 <1>   0.1440 
 10 H       -4.8640     2.8470     0.5410 H     1 <1>   0.0000 
 11 H       -4.6490     1.2330     1.2280 H     1 <1>   0.0000 
 12 H       -4.9810     1.4400    -0.5170 H     1 <1>   0.0000 
 13 C       -2.3000     3.1420     0.1760 C.ar  1 <1>  -0.1500 
 14 H       -2.8810     4.0190     0.4460 H     1 <1>   0.1500 
 15 C       -0.9210     3.2450    -0.0620 C.ar  1 <1>   0.1170 
 16 C       -0.2000     2.0920    -0.4050 C.ar  1 <1>   0.1790 
 17 N        1.1760     2.1020    -0.6750 N.2   1 <1>  -0.6290 
 18 C        1.8150     3.2380    -0.6050 C.2   1 <1>   0.4500 
 19 C        3.2930     3.1920    -0.9490 C.2   1 <1>   0.6300 
 20 O        3.7790     4.0080    -1.7160 O.2   1 <1>  -0.5700 
 21 N        3.9560     2.1400    -0.3470 N.am  1 <1>  -0.5790 
 22 H        3.3980     1.4870     0.1950 H     1 <1>   0.3700 
 23 C        5.3590     1.9360    -0.4790 C.3   1 <1>   0.0490 
 24 H        5.6900     1.9230    -1.5160 H     1 <1>   0.1000 
 25 C        6.0940     1.0330     0.4740 C.3   1 <1>  -0.2000 
 26 H        6.8900     0.4170     0.0720 H     1 <1>   0.1000 
 27 H        5.5490     0.5760     1.2910 H     1 <1>   0.1000 
 28 C        6.3140     2.5160     0.5260 C.3   1 <1>  -0.2000 
 29 H        5.9050     3.0670     1.3650 H     1 <1>   0.1000 
 30 H        7.2530     2.9100     0.1550 H     1 <1>   0.1000 
 31 C        1.1510     4.5320    -0.1750 C.2   1 <1>   0.6300 
 32 O        1.8460     5.5270    -0.0140 O.2   1 <1>  -0.5700 
 33 N       -0.2220     4.4790     0.0490 N.am  1 <1>  -0.4770 
 34 C       -0.9220     5.6990     0.4110 C.3   1 <1>   0.3000 
 35 H       -0.2480     6.5600     0.4360 H     1 <1>   0.0000 
 36 H       -1.7020     5.9050    -0.3280 H     1 <1>   0.0000 
 37 H       -1.3610     5.5840     1.4070 H     1 <1>   0.0000 
@<TRIPOS>BOND
  1   1   2  1   
  2   2   3  ar  
  3   2  16  ar  
  4   3   4  1   
  5   3   8  ar  
  6   4   5  1   
  7   4   6  1   
  8   4   7  1   
  9   8   9  1   
 10   8  13  ar  
 11   9  10  1   
 12   9  11  1   
 13   9  12  1   
 14  13  14  1   
 15  13  15  ar  
 16  15  16  ar  
 17  15  33  1   
 18  16  17  1   
 19  17  18  2   
 20  18  19  1   
 21  18  31  1   
 22  19  20  2   
 23  19  21  am  
 24  21  22  1   
 25  21  23  1   
 26  23  24  1   
 27  23  25  1   
 28  23  28  1   
 29  25  26  1   
 30  25  27  1   
 31  25  28  1   
 32  28  29  1   
 33  28  30  1   
 34  31  32  2   
 35  31  33  am  
 36  33  34  1   
 37  34  35  1   
 38  34  36  1   
 39  34  37  1   
@<TRIPOS>SUBSTRUCTURE
  1 ****  17 GROUP 4 **** **** 0

# MOE 2022.02 (io_trps.svl 2020.11)

@<TRIPOS>MOLECULE
CEP067
36 37 1 0 0 
SMALL
USER_CHARGES


@<TRIPOS>ATOM
  1 H       -4.8700     1.7470    -0.1560 H     1 <1>   0.1500 
  2 C       -4.3220     2.6800    -0.0740 C.ar  1 <1>  -0.1500 
  3 C       -4.9750     3.9070     0.0730 C.ar  1 <1>   0.0820 
  4 O       -6.3290     4.0930     0.1310 O.3   1 <1>  -0.3630 
  5 C       -7.1440     2.9330     0.0300 C.3   1 <1>   0.2800 
  6 H       -8.1890     3.2520     0.0900 H     1 <1>   0.0000 
  7 H       -6.9580     2.2460     0.8620 H     1 <1>   0.0000 
  8 H       -7.0040     2.4340    -0.9350 H     1 <1>   0.0000 
  9 C       -4.2210     5.0790     0.1740 C.ar  1 <1>  -0.1500 
 10 H       -4.7320     6.0300     0.2880 H     1 <1>   0.1500 
 11 C       -2.8290     5.0190     0.1280 C.ar  1 <1>   0.1170 
 12 C       -2.1700     3.7960    -0.0180 C.ar  1 <1>   0.0280 
 13 C       -2.9230     2.6250    -0.1200 C.ar  1 <1>  -0.1500 
 14 H       -2.4370     1.6590    -0.2360 H     1 <1>   0.1500 
 15 C       -0.7070     3.7740    -0.0610 C.2   1 <1>  -0.1780 
 16 H       -0.2390     2.8040    -0.1830 H     1 <1>   0.1500 
 17 C        0.0100     4.9090     0.0380 C.2   1 <1>  -0.1240 
 18 C        1.5170     5.0200     0.0120 C.3   1 <1>   0.1380 
 19 H        1.8080     5.6040    -0.8720 H     1 <1>   0.0000 
 20 H        1.8370     5.6030     0.8870 H     1 <1>   0.0000 
 21 C        2.3050     3.7050     0.0120 C.3   1 <1>   0.3560 
 22 H        2.0570     3.1220     0.9060 H     1 <1>   0.0000 
 23 H        2.0480     3.1190    -0.8770 H     1 <1>   0.0000 
 24 N        3.7450     3.9970     0.0240 N.am  1 <1>  -0.9140 
 25 H        4.1010     4.6220     0.7490 H     1 <1>   0.4200 
 26 S        4.8350     2.8170    -0.4520 S.o2  1 <1>   1.3330 
 27 O        4.3860     2.2680    -1.7110 O.2   1 <1>  -0.6500 
 28 O        6.1490     3.3970    -0.2910 O.2   1 <1>  -0.6500 
 29 C        4.6280     1.5770     0.8090 C.3   1 <1>   0.1050 
 30 H        3.6190     1.1660     0.7490 H     1 <1>   0.0000 
 31 H        4.8130     2.0300     1.7850 H     1 <1>   0.0000 
 32 H        5.3590     0.7870     0.6240 H     1 <1>   0.0000 
 33 C       -0.7070     6.2200     0.1960 C.2   1 <1>   0.6160 
 34 O       -0.0920     7.2780     0.2970 O.2   1 <1>  -0.5700 
 35 N       -2.0740     6.1910     0.2300 N.am  1 <1>  -0.5470 
 36 H       -2.5340     7.0860     0.3370 H     1 <1>   0.3700 
@<TRIPOS>BOND
  1   1   2  1   
  2   2   3  ar  
  3   2  13  ar  
  4   3   4  1   
  5   3   9  ar  
  6   4   5  1   
  7   5   6  1   
  8   5   7  1   
  9   5   8  1   
 10   9  10  1   
 11   9  11  ar  
 12  11  12  ar  
 13  11  35  1   
 14  12  13  ar  
 15  12  15  1   
 16  13  14  1   
 17  15  16  1   
 18  15  17  2   
 19  17  18  1   
 20  17  33  1   
 21  18  19  1   
 22  18  20  1   
 23  18  21  1   
 24  21  22  1   
 25  21  23  1   
 26  21  24  1   
 27  24  25  1   
 28  24  26  am  
 29  26  27  2   
 30  26  28  2   
 31  26  29  1   
 32  29  30  1   
 33  29  31  1   
 34  29  32  1   
 35  33  34  2   
 36  33  35  am  
 37  35  36  1   
@<TRIPOS>SUBSTRUCTURE
  1 ****  15 GROUP 4 **** **** 0

# MOE 2022.02 (io_trps.svl 2020.11)

@<TRIPOS>MOLECULE
CEP068
38 40 1 0 0 
SMALL
USER_CHARGES


@<TRIPOS>ATOM
  1 H       -0.0500     1.2130     2.4200 H     1 <1>   0.1500 
  2 C       -0.7490     0.7180     1.7480 C.ar  1 <1>  -0.1500 
  3 C       -0.3430    -0.4010     1.0190 C.ar  1 <1>   0.0860 
  4 C        1.0320    -0.9130     1.2020 C.2   1 <1>   0.5440 
  5 O        1.4010    -1.1310     2.3540 O.2   1 <1>  -0.5700 
  6 N        1.8370    -1.1180     0.0900 N.am  1 <1>  -0.6600 
  7 C        3.1050    -1.8340     0.2450 C.3   1 <1>   0.3000 
  8 H        2.9760    -2.7970    -0.2640 H     1 <1>   0.0000 
  9 H        3.3280    -2.0360     1.2960 H     1 <1>   0.0000 
 10 C        4.2530    -1.0590    -0.4040 C.3   1 <1>   0.2800 
 11 H        5.1710    -1.6550    -0.3760 H     1 <1>   0.0000 
 12 H        4.4460    -0.1180     0.1260 H     1 <1>   0.0000 
 13 O        3.9620    -0.7690    -1.7810 O.3   1 <1>  -0.5600 
 14 C        2.7780     0.0350    -1.8850 C.3   1 <1>   0.2800 
 15 H        2.6040     0.2400    -2.9460 H     1 <1>   0.0000 
 16 H        2.9560     0.9940    -1.3830 H     1 <1>   0.0000 
 17 C        1.5590    -0.6780    -1.2830 C.3   1 <1>   0.3000 
 18 H        1.3330    -1.5820    -1.8600 H     1 <1>   0.0000 
 19 H        0.6970    -0.0080    -1.3260 H     1 <1>   0.0000 
 20 C       -1.2530    -1.0670     0.1960 C.ar  1 <1>  -0.1500 
 21 H       -0.9560    -1.9670    -0.3370 H     1 <1>   0.1500 
 22 C       -2.5620    -0.5940     0.0620 C.ar  1 <1>   0.1790 
 23 N       -3.4120    -1.3010    -0.8000 N.2   1 <1>  -0.6290 
 24 C       -4.6350    -0.8870    -0.9320 C.2   1 <1>   0.3890 
 25 C       -5.5790    -1.6190    -1.8440 C.3   1 <1>   0.0610 
 26 H       -5.9240    -0.9450    -2.6320 H     1 <1>   0.0000 
 27 H       -6.4370    -1.9810    -1.2710 H     1 <1>   0.0000 
 28 H       -5.0770    -2.4740    -2.3050 H     1 <1>   0.0000 
 29 C       -5.1960     0.3280    -0.2080 C.2   1 <1>   0.6300 
 30 O       -6.3660     0.6340    -0.4050 O.2   1 <1>  -0.5700 
 31 N       -4.3150     1.0020     0.6310 N.am  1 <1>  -0.4770 
 32 C       -4.7880     2.1700     1.3510 C.3   1 <1>   0.3000 
 33 H       -4.1910     3.0410     1.0640 H     1 <1>   0.0000 
 34 H       -4.7080     1.9910     2.4280 H     1 <1>   0.0000 
 35 H       -5.8350     2.3880     1.1230 H     1 <1>   0.0000 
 36 C       -2.9740     0.5470     0.7800 C.ar  1 <1>   0.1170 
 37 C       -2.0570     1.1940     1.6230 C.ar  1 <1>  -0.1500 
 38 H       -2.3340     2.0660     2.2070 H     1 <1>   0.1500 
@<TRIPOS>BOND
  1   1   2  1   
  2   2   3  ar  
  3   2  37  ar  
  4   3   4  1   
  5   3  20  ar  
  6   4   5  2   
  7   4   6  am  
  8   6   7  1   
  9   6  17  1   
 10   7   8  1   
 11   7   9  1   
 12   7  10  1   
 13  10  11  1   
 14  10  12  1   
 15  10  13  1   
 16  13  14  1   
 17  14  15  1   
 18  14  16  1   
 19  14  17  1   
 20  17  18  1   
 21  17  19  1   
 22  20  21  1   
 23  20  22  ar  
 24  22  23  1   
 25  22  36  ar  
 26  23  24  2   
 27  24  25  1   
 28  24  29  1   
 29  25  26  1   
 30  25  27  1   
 31  25  28  1   
 32  29  30  2   
 33  29  31  am  
 34  31  32  1   
 35  31  36  1   
 36  32  33  1   
 37  32  34  1   
 38  32  35  1   
 39  36  37  ar  
 40  37  38  1   
@<TRIPOS>SUBSTRUCTURE
  1 ****  20 GROUP 4 **** **** 0

# MOE 2022.02 (io_trps.svl 2020.11)

@<TRIPOS>MOLECULE
CEP069
32 33 1 0 0 
SMALL
USER_CHARGES


@<TRIPOS>ATOM
  1 H        0.9310    -2.0250     0.1940 H     1 <1>   0.1500 
  2 C        0.9630    -0.9400     0.1250 C.ar  1 <1>  -0.1500 
  3 C       -0.2560    -0.2480     0.1600 C.ar  1 <1>   0.0860 
  4 C       -1.5180    -0.9880     0.3550 C.2   1 <1>   0.6340 
  5 O       -2.3940    -0.6190     1.1160 O.2   1 <1>  -0.5700 
  6 O       -1.5170    -2.0930    -0.4260 O.3   1 <1>  -0.4300 
  7 C       -2.7200    -2.8610    -0.3360 C.3   1 <1>   0.2800 
  8 H       -3.5780    -2.2660    -0.6650 H     1 <1>   0.0000 
  9 H       -2.6210    -3.7240    -1.0010 H     1 <1>   0.0000 
 10 H       -2.8670    -3.2240     0.6860 H     1 <1>   0.0000 
 11 C       -0.2360     1.1380     0.0940 C.ar  1 <1>   0.1330 
 12 N       -1.4690     1.8990     0.0360 N.pl3 1 <1>   0.9070 
 13 O       -2.2460     1.6330    -0.8890 O.2   1 <1>  -0.5200 
 14 O       -1.6040     2.8080     0.8650 O.2   1 <1>  -0.5200 
 15 C        0.9730     1.8430     0.0040 C.ar  1 <1>  -0.1500 
 16 H        0.9310     2.9280    -0.0500 H     1 <1>   0.1500 
 17 C        2.1980     1.1530    -0.0280 C.ar  1 <1>   0.1170 
 18 C        2.1940    -0.2560     0.0260 C.ar  1 <1>   0.1170 
 19 N        3.4200    -0.9750    -0.0140 N.am  1 <1>  -0.4770 
 20 C        3.4280    -2.4310     0.0330 C.3   1 <1>   0.3000 
 21 H        2.8650    -2.8260    -0.8190 H     1 <1>   0.0000 
 22 H        2.9830    -2.7660     0.9750 H     1 <1>   0.0000 
 23 H        4.4400    -2.8420    -0.0200 H     1 <1>   0.0000 
 24 C        4.6530    -0.3270    -0.1020 C.2   1 <1>   0.6300 
 25 O        5.7300    -0.9170    -0.1350 O.2   1 <1>  -0.5700 
 26 C        4.6560     1.2040    -0.1580 C.2   1 <1>   0.6300 
 27 O        5.7350     1.7860    -0.2350 O.2   1 <1>  -0.5700 
 28 N        3.4270     1.8620    -0.1170 N.am  1 <1>  -0.4770 
 29 C        3.4410     3.3180    -0.1690 C.3   1 <1>   0.3000 
 30 H        4.4560     3.7200    -0.2290 H     1 <1>   0.0000 
 31 H        2.9780     3.7190     0.7380 H     1 <1>   0.0000 
 32 H        2.8970     3.6550    -1.0570 H     1 <1>   0.0000 
@<TRIPOS>BOND
  1   1   2  1   
  2   2   3  ar  
  3   2  18  ar  
  4   3   4  1   
  5   3  11  ar  
  6   4   5  2   
  7   4   6  1   
  8   6   7  1   
  9   7   8  1   
 10   7   9  1   
 11   7  10  1   
 12  11  12  1   
 13  11  15  ar  
 14  12  13  2   
 15  12  14  2   
 16  15  16  1   
 17  15  17  ar  
 18  17  18  ar  
 19  17  28  1   
 20  18  19  1   
 21  19  20  1   
 22  19  24  am  
 23  20  21  1   
 24  20  22  1   
 25  20  23  1   
 26  24  25  2   
 27  24  26  1   
 28  26  27  2   
 29  26  28  am  
 30  28  29  1   
 31  29  30  1   
 32  29  31  1   
 33  29  32  1   
@<TRIPOS>SUBSTRUCTURE
  1 ****  18 GROUP 4 **** **** 0

# MOE 2022.02 (io_trps.svl 2020.11)

@<TRIPOS>MOLECULE
CEP070
31 33 1 0 0 
SMALL
USER_CHARGES


@<TRIPOS>ATOM
  1 H        1.7840     0.8880     1.7150 H     1 <1>   0.4500 
  2 O        2.2740     0.2840     1.1340 O.3   1 <1>  -0.5320 
  3 C        1.4100    -0.6430     0.6160 C.ar  1 <1>   0.0820 
  4 C        0.0390    -0.5200     0.8540 C.ar  1 <1>  -0.1500 
  5 H       -0.3570     0.2970     1.4510 H     1 <1>   0.1500 
  6 C       -0.8430    -1.4590     0.3160 C.ar  1 <1>  -0.1500 
  7 H       -1.9090    -1.3590     0.5080 H     1 <1>   0.1500 
  8 C       -0.3400    -2.5090    -0.4650 C.ar  1 <1>   0.1330 
  9 N       -1.2660    -3.4890    -1.0410 N.pl3 1 <1>   0.9070 
 10 O       -2.4320    -3.4950    -0.6190 O.2   1 <1>  -0.5200 
 11 O       -0.8370    -4.2390    -1.9300 O.2   1 <1>  -0.5200 
 12 C        1.0340    -2.6290    -0.7090 C.ar  1 <1>  -0.1500 
 13 H        1.4180    -3.4500    -1.3110 H     1 <1>   0.1500 
 14 C        1.9230    -1.7040    -0.1480 C.ar  1 <1>   0.0280 
 15 C        3.3680    -1.8170    -0.3890 C.2   1 <1>  -0.1780 
 16 H        3.8010    -0.9390    -0.8620 H     1 <1>   0.1500 
 17 C        4.1520    -2.8480    -0.0380 C.2   1 <1>  -0.0140 
 18 C        3.7510    -4.1130     0.6830 C.2   1 <1>   0.6160 
 19 O        2.6490    -4.4490     1.0700 O.2   1 <1>  -0.5700 
 20 N        4.9270    -4.8360     0.8160 N.am  1 <1>  -0.5470 
 21 H        4.9630    -5.7380     1.2640 H     1 <1>   0.3700 
 22 C        6.0080    -4.1570     0.2630 C.ar  1 <1>   0.1170 
 23 C        7.3200    -4.5830     0.2230 C.ar  1 <1>  -0.1500 
 24 H        7.6250    -5.5350     0.6430 H     1 <1>   0.1500 
 25 C        8.2510    -3.7350    -0.3820 C.ar  1 <1>  -0.1500 
 26 H        9.2970    -4.0310    -0.4340 H     1 <1>   0.1500 
 27 C        7.8530    -2.4990    -0.9240 C.ar  1 <1>  -0.1500 
 28 H        8.5960    -1.8540    -1.3890 H     1 <1>   0.1500 
 29 C        6.5160    -2.0880    -0.8730 C.ar  1 <1>  -0.1500 
 30 H        6.2200    -1.1330    -1.2930 H     1 <1>   0.1500 
 31 C        5.5980    -2.9320    -0.2730 C.ar  1 <1>   0.0280 
@<TRIPOS>BOND
  1   1   2  1   
  2   2   3  1   
  3   3   4  ar  
  4   3  14  ar  
  5   4   5  1   
  6   4   6  ar  
  7   6   7  1   
  8   6   8  ar  
  9   8   9  1   
 10   8  12  ar  
 11   9  10  2   
 12   9  11  2   
 13  12  13  1   
 14  12  14  ar  
 15  14  15  1   
 16  15  16  1   
 17  15  17  2   
 18  17  18  1   
 19  17  31  1   
 20  18  19  2   
 21  18  20  am  
 22  20  21  1   
 23  20  22  1   
 24  22  23  ar  
 25  22  31  ar  
 26  23  24  1   
 27  23  25  ar  
 28  25  26  1   
 29  25  27  ar  
 30  27  28  1   
 31  27  29  ar  
 32  29  30  1   
 33  29  31  ar  
@<TRIPOS>SUBSTRUCTURE
  1 ****  15 GROUP 4 **** **** 0

# MOE 2022.02 (io_trps.svl 2020.11)

@<TRIPOS>MOLECULE
CEP071
37 38 1 0 0 
SMALL
USER_CHARGES


@<TRIPOS>ATOM
  1 H        7.3660     4.3640     2.0090 H     1 <1>   0.4000 
  2 O        7.9900     4.4630     1.2710 O.3   1 <1>  -0.6800 
  3 C        7.5450     3.5650     0.2670 C.3   1 <1>   0.7040 
  4 H        7.8880     3.9240    -0.7110 H     1 <1>   0.0000 
  5 O        8.0820     2.2710     0.5090 O.3   1 <1>  -0.5600 
  6 C        9.4810     2.2190     0.2620 C.3   1 <1>   0.2800 
  7 H        9.8240     1.1990     0.4540 H     1 <1>   0.0000 
  8 H        9.6970     2.4670    -0.7810 H     1 <1>   0.0000 
  9 H       10.0210     2.8960     0.9310 H     1 <1>   0.0000 
 10 C        6.0270     3.5390     0.2680 C.ar  1 <1>  -0.1440 
 11 C        5.2960     2.4460     0.7590 C.ar  1 <1>  -0.1500 
 12 H        5.8120     1.5660     1.1410 H     1 <1>   0.1500 
 13 C        3.8970     2.4620     0.7630 C.ar  1 <1>  -0.1500 
 14 H        3.3470     1.6050     1.1430 H     1 <1>   0.1500 
 15 C        3.1980     3.5700     0.2850 C.ar  1 <1>   0.1790 
 16 N        1.7930     3.5450     0.3070 N.2   1 <1>  -0.6290 
 17 C        1.1480     4.5750    -0.1600 C.2   1 <1>   0.3890 
 18 C       -0.3680     4.6200    -0.1560 C.3   1 <1>   0.0610 
 19 H       -0.6560     5.2090     0.7240 H     1 <1>   0.0000 
 20 H       -0.7120     5.1690    -1.0410 H     1 <1>   0.0000 
 21 C       -1.0500     3.2440    -0.1110 C.3   1 <1>   0.0000 
 22 H       -0.6220     2.6450     0.7030 H     1 <1>   0.0000 
 23 C       -0.8550     2.4800    -1.4230 C.3   1 <1>   0.0000 
 24 H       -1.3490     1.5040    -1.3790 H     1 <1>   0.0000 
 25 H        0.2050     2.3030    -1.6300 H     1 <1>   0.0000 
 26 H       -1.2760     3.0320    -2.2700 H     1 <1>   0.0000 
 27 C       -2.5460     3.4090     0.1710 C.3   1 <1>   0.0000 
 28 H       -2.7070     3.9200     1.1260 H     1 <1>   0.0000 
 29 H       -3.0410     2.4330     0.2280 H     1 <1>   0.0000 
 30 H       -3.0370     3.9930    -0.6140 H     1 <1>   0.0000 
 31 C        1.8590     5.8250    -0.6850 C.2   1 <1>   0.6300 
 32 O        1.2230     6.7900    -1.0810 O.2   1 <1>  -0.5700 
 33 N        3.2310     5.7820    -0.6740 N.am  1 <1>  -0.5470 
 34 H        3.7200     6.5940    -1.0230 H     1 <1>   0.3700 
 35 C        3.9250     4.6660    -0.1990 C.ar  1 <1>   0.1170 
 36 C        5.3210     4.6590    -0.2080 C.ar  1 <1>  -0.1500 
 37 H        5.8720     5.5210    -0.5780 H     1 <1>   0.1500 
@<TRIPOS>BOND
  1   1   2  1   
  2   2   3  1   
  3   3   4  1   
  4   3   5  1   
  5   3  10  1   
  6   5   6  1   
  7   6   7  1   
  8   6   8  1   
  9   6   9  1   
 10  10  11  ar  
 11  10  36  ar  
 12  11  12  1   
 13  11  13  ar  
 14  13  14  1   
 15  13  15  ar  
 16  15  16  1   
 17  15  35  ar  
 18  16  17  2   
 19  17  18  1   
 20  17  31  1   
 21  18  19  1   
 22  18  20  1   
 23  18  21  1   
 24  21  22  1   
 25  21  23  1   
 26  21  27  1   
 27  23  24  1   
 28  23  25  1   
 29  23  26  1   
 30  27  28  1   
 31  27  29  1   
 32  27  30  1   
 33  31  32  2   
 34  31  33  am  
 35  33  34  1   
 36  33  35  1   
 37  35  36  ar  
 38  36  37  1   
@<TRIPOS>SUBSTRUCTURE
  1 ****  15 GROUP 4 **** **** 0

# MOE 2022.02 (io_trps.svl 2020.11)

@<TRIPOS>MOLECULE
CEP072
32 33 1 0 0 
SMALL
USER_CHARGES


@<TRIPOS>ATOM
  1 H        1.7050    -3.5450     0.6670 H     1 <1>   0.1500 
  2 C        0.8430    -2.9640     0.3520 C.ar  1 <1>  -0.1500 
  3 C       -0.4180    -3.5180     0.6100 C.ar  1 <1>  -0.1500 
  4 H       -0.4730    -4.4880     1.1030 H     1 <1>   0.1500 
  5 C       -1.5850    -2.8450     0.2470 C.ar  1 <1>  -0.1440 
  6 C       -2.9320    -3.4580     0.4990 C.3   1 <1>   0.1440 
  7 H       -3.6820    -2.6830     0.6880 H     1 <1>   0.0000 
  8 H       -2.9080    -4.1080     1.3800 H     1 <1>   0.0000 
  9 H       -3.2420    -4.0480    -0.3680 H     1 <1>   0.0000 
 10 C       -1.4740    -1.6170    -0.4090 C.ar  1 <1>  -0.1500 
 11 H       -2.3850    -1.1010    -0.7110 H     1 <1>   0.1500 
 12 C       -0.2060    -1.0560    -0.6710 C.ar  1 <1>   0.1330 
 13 N       -0.1760     0.2480    -1.3580 N.pl3 1 <1>   0.9070 
 14 O        0.9290     0.7730    -1.5730 O.2   1 <1>  -0.5200 
 15 O       -1.2570     0.7570    -1.6880 O.2   1 <1>  -0.5200 
 16 C        0.9810    -1.7240    -0.2860 C.ar  1 <1>   0.1170 
 17 N        2.2600    -1.1600    -0.5410 N.am  1 <1>  -0.5470 
 18 H        2.2490    -0.2600    -1.0240 H     1 <1>   0.3700 
 19 C        3.5160    -1.6620    -0.2230 C.2   1 <1>   0.5690 
 20 O        3.7420    -2.7160     0.3620 O.2   1 <1>  -0.5700 
 21 C        4.6470    -0.7140    -0.6810 C.3   1 <1>   0.3410 
 22 H        4.4500    -0.4170    -1.7180 H     1 <1>   0.0000 
 23 O        5.9470    -1.3170    -0.6680 O.3   1 <1>  -0.5600 
 24 C        6.7640    -0.6170     0.2730 C.3   1 <1>   0.2800 
 25 H        6.6870    -1.1240     1.2410 H     1 <1>   0.0000 
 26 H        7.8070    -0.6350    -0.0550 H     1 <1>   0.0000 
 27 C        6.1950     0.7800     0.3330 C.3   1 <1>   0.0000 
 28 H        6.5290     1.3590    -0.5360 H     1 <1>   0.0000 
 29 H        6.4780     1.3210     1.2390 H     1 <1>   0.0000 
 30 C        4.7150     0.5140     0.2240 C.3   1 <1>   0.0000 
 31 H        4.2990     0.2980     1.2160 H     1 <1>   0.0000 
 32 H        4.1600     1.3640    -0.1840 H     1 <1>   0.0000 
@<TRIPOS>BOND
  1   1   2  1   
  2   2   3  ar  
  3   2  16  ar  
  4   3   4  1   
  5   3   5  ar  
  6   5   6  1   
  7   5  10  ar  
  8   6   7  1   
  9   6   8  1   
 10   6   9  1   
 11  10  11  1   
 12  10  12  ar  
 13  12  13  1   
 14  12  16  ar  
 15  13  14  2   
 16  13  15  2   
 17  16  17  1   
 18  17  18  1   
 19  17  19  am  
 20  19  20  2   
 21  19  21  1   
 22  21  22  1   
 23  21  23  1   
 24  21  30  1   
 25  23  24  1   
 26  24  25  1   
 27  24  26  1   
 28  24  27  1   
 29  27  28  1   
 30  27  29  1   
 31  27  30  1   
 32  30  31  1   
 33  30  32  1   
@<TRIPOS>SUBSTRUCTURE
  1 ****  17 GROUP 4 **** **** 0

# MOE 2022.02 (io_trps.svl 2020.11)

@<TRIPOS>MOLECULE
CEP073
36 37 1 0 0 
SMALL
USER_CHARGES


@<TRIPOS>ATOM
  1 H       -7.8190     0.5810    -0.2390 H     1 <1>   0.1500 
  2 C       -7.0130    -0.0840     0.0480 C.ar  1 <1>  -0.1500 
  3 C       -7.3170    -1.3860     0.3780 C.ar  1 <1>   0.0820 
  4 C       -6.3510    -2.2820     0.7560 C.ar  1 <1>   0.0820 
  5 C       -5.0190    -1.9310     0.8280 C.ar  1 <1>  -0.1500 
  6 H       -4.3010    -2.6830     1.1300 H     1 <1>   0.1500 
  7 C       -4.6550    -0.6150     0.5030 C.ar  1 <1>   0.1170 
  8 N       -3.3060    -0.1820     0.5540 N.am  1 <1>  -0.5470 
  9 H       -3.1740     0.8000     0.2920 H     1 <1>   0.3700 
 10 C       -2.1760    -0.8970     0.8980 C.2   1 <1>   0.5690 
 11 O       -2.1330    -2.0770     1.2340 O.2   1 <1>  -0.5700 
 12 C       -0.9150    -0.0730     0.8420 C.3   1 <1>   0.1220 
 13 H       -0.2660    -0.4180     1.6560 H     1 <1>   0.0000 
 14 H       -1.1330     0.9870     1.0080 H     1 <1>   0.0000 
 15 C       -0.1940    -0.2170    -0.4640 C.2   1 <1>   0.6590 
 16 O       -0.6970    -0.5790    -1.5180 O.2   1 <1>  -0.5700 
 17 O        1.1030     0.1810    -0.3170 O.3   1 <1>  -0.4300 
 18 C        1.8800     0.1070    -1.5200 C.3   1 <1>   0.2800 
 19 H        1.8910    -0.9240    -1.8910 H     1 <1>   0.0000 
 20 H        1.4480     0.7700    -2.2780 H     1 <1>   0.0000 
 21 C        3.2940     0.5510    -1.2000 C.3   1 <1>   0.0000 
 22 H        3.9260     0.5140    -2.0920 H     1 <1>   0.0000 
 23 H        3.7340    -0.0900    -0.4290 H     1 <1>   0.0000 
 24 H        3.2980     1.5720    -0.8050 H     1 <1>   0.0000 
 25 C       -5.6670     0.3180     0.1080 C.ar  1 <1>   0.0860 
 26 C       -5.3090     1.7370    -0.2420 C.2   1 <1>   0.4230 
 27 O       -4.1530     2.1370    -0.0950 O.2   1 <1>  -0.5700 
 28 C       -6.3780     2.6620    -0.7670 C.3   1 <1>   0.0610 
 29 H       -7.1200     2.8630     0.0100 H     1 <1>   0.0000 
 30 H       -5.9180     3.6140    -1.0540 H     1 <1>   0.0000 
 31 H       -6.8460     2.2380    -1.6590 H     1 <1>   0.0000 
 32 O       -6.8660    -3.5090     1.0390 O.3   1 <1>  -0.3630 
 33 C       -8.2690    -3.2820     0.7930 C.3   1 <1>   0.5600 
 34 H       -8.8260    -3.4910     1.7140 H     1 <1>   0.0000 
 35 H       -8.6050    -3.9740     0.0130 H     1 <1>   0.0000 
 36 O       -8.5620    -1.9320     0.3730 O.3   1 <1>  -0.3630 
@<TRIPOS>BOND
  1   1   2  1   
  2   2   3  ar  
  3   2  25  ar  
  4   3   4  ar  
  5   3  36  1   
  6   4   5  ar  
  7   4  32  1   
  8   5   6  1   
  9   5   7  ar  
 10   7   8  1   
 11   7  25  ar  
 12   8   9  1   
 13   8  10  am  
 14  10  11  2   
 15  10  12  1   
 16  12  13  1   
 17  12  14  1   
 18  12  15  1   
 19  15  16  2   
 20  15  17  1   
 21  17  18  1   
 22  18  19  1   
 23  18  20  1   
 24  18  21  1   
 25  21  22  1   
 26  21  23  1   
 27  21  24  1   
 28  25  26  1   
 29  26  27  2   
 30  26  28  1   
 31  28  29  1   
 32  28  30  1   
 33  28  31  1   
 34  32  33  1   
 35  33  34  1   
 36  33  35  1   
 37  33  36  1   
@<TRIPOS>SUBSTRUCTURE
  1 ****   8 GROUP 4 **** **** 0

# MOE 2022.02 (io_trps.svl 2020.11)

@<TRIPOS>MOLECULE
CEP074
34 35 1 0 0 
SMALL
USER_CHARGES


@<TRIPOS>ATOM
  1 H       -7.9390     3.1290     0.0950 H     1 <1>   0.1500 
  2 C       -7.1040     3.8220     0.0670 C.ar  1 <1>  -0.1500 
  3 C       -7.3320     5.1920     0.0110 C.ar  1 <1>  -0.1500 
  4 H       -8.3500     5.5740    -0.0040 H     1 <1>   0.1500 
  5 C       -6.2550     6.0900    -0.0260 C.ar  1 <1>  -0.1500 
  6 H       -6.5080     7.1440    -0.0680 H     1 <1>   0.1500 
  7 C       -4.9260     5.6420    -0.0090 C.ar  1 <1>   0.1170 
  8 N       -3.7930     6.5340    -0.0450 N.am  1 <1>  -0.1150 
  9 N       -2.5710     5.8760    -0.0160 N.2   1 <1>  -0.5120 
 10 C       -1.4830     6.5690    -0.0430 C.2   1 <1>   0.5860 
 11 O       -0.3240     5.8800    -0.0120 O.3   1 <1>  -0.4300 
 12 C        0.9730     6.4950    -0.0330 C.3   1 <1>   0.3410 
 13 H        1.0880     7.0590    -0.9640 H     1 <1>   0.0000 
 14 H        1.0810     7.1360     0.8470 H     1 <1>   0.0000 
 15 C        2.0760     5.4480     0.0150 C.2   1 <1>   0.6590 
 16 O        1.9200     4.2370     0.0630 O.2   1 <1>  -0.5700 
 17 O        3.2890     6.0790    -0.0050 O.3   1 <1>  -0.4300 
 18 C        4.4130     5.1890     0.0360 C.3   1 <1>   0.2800 
 19 H        4.3760     4.5890     0.9520 H     1 <1>   0.0000 
 20 H        4.3930     4.5300    -0.8390 H     1 <1>   0.0000 
 21 C        5.6780     6.0240     0.0200 C.3   1 <1>   0.0000 
 22 H        6.5660     5.3860     0.0510 H     1 <1>   0.0000 
 23 H        5.7190     6.6450    -0.8810 H     1 <1>   0.0000 
 24 H        5.7020     6.7050     0.8780 H     1 <1>   0.0000 
 25 C       -1.4200     8.0250    -0.1060 C.2   1 <1>  -0.1360 
 26 H       -0.4930     8.5730    -0.1290 H     1 <1>   0.1500 
 27 C       -2.5930     8.6570    -0.1350 C.2   1 <1>  -0.1360 
 28 H       -2.6620     9.7380    -0.1810 H     1 <1>   0.1500 
 29 C       -3.8860     7.9300    -0.1050 C.2   1 <1>   0.6160 
 30 O       -4.8960     8.6280    -0.1360 O.2   1 <1>  -0.5700 
 31 C       -4.7260     4.2480     0.0480 C.ar  1 <1>  -0.1500 
 32 H       -3.7210     3.8320     0.0640 H     1 <1>   0.1500 
 33 C       -5.7980     3.3480     0.0850 C.ar  1 <1>  -0.1500 
 34 H       -5.6050     2.2800     0.1290 H     1 <1>   0.1500 
@<TRIPOS>BOND
  1   1   2  1   
  2   2   3  ar  
  3   2  33  ar  
  4   3   4  1   
  5   3   5  ar  
  6   5   6  1   
  7   5   7  ar  
  8   7   8  1   
  9   7  31  ar  
 10   8   9  1   
 11   8  29  am  
 12   9  10  2   
 13  10  11  1   
 14  10  25  1   
 15  11  12  1   
 16  12  13  1   
 17  12  14  1   
 18  12  15  1   
 19  15  16  2   
 20  15  17  1   
 21  17  18  1   
 22  18  19  1   
 23  18  20  1   
 24  18  21  1   
 25  21  22  1   
 26  21  23  1   
 27  21  24  1   
 28  25  26  1   
 29  25  27  2   
 30  27  28  1   
 31  27  29  1   
 32  29  30  2   
 33  31  32  1   
 34  31  33  ar  
 35  33  34  1   
@<TRIPOS>SUBSTRUCTURE
  1 ****   9 GROUP 4 **** **** 0

# MOE 2022.02 (io_trps.svl 2020.11)

@<TRIPOS>MOLECULE
CEP075
38 40 1 0 0 
SMALL
USER_CHARGES


@<TRIPOS>ATOM
  1 H        0.0160    -0.7020    -3.1200 H     1 <1>   0.4500 
  2 O        0.3110    -1.4450    -2.5630 O.3   1 <1>  -0.5130 
  3 C       -0.6750    -1.7850    -1.7390 C.2   1 <1>  -0.0890 
  4 C       -0.7430    -2.8450    -0.8490 C.2   1 <1>  -0.1810 
  5 C        0.3000    -3.8990    -0.6480 C.3   1 <1>   0.2420 
  6 H        0.6950    -4.2290    -1.6170 H     1 <1>   0.0000 
  7 H       -0.1360    -4.7830    -0.1690 H     1 <1>   0.0000 
  8 C        1.4630    -3.4140     0.2070 C.2   1 <1>   0.5690 
  9 O        1.6920    -3.9200     1.3040 O.2   1 <1>  -0.5700 
 10 N        2.2100    -2.4250    -0.4130 N.am  1 <1>  -0.5470 
 11 H        1.8370    -2.0920    -1.3000 H     1 <1>   0.3700 
 12 C        3.3980    -1.8200     0.0400 C.ar  1 <1>   0.1170 
 13 C        4.0390    -2.1530     1.2360 C.ar  1 <1>  -0.1500 
 14 H        3.6420    -2.9150     1.9010 H     1 <1>   0.1500 
 15 C        5.2230    -1.5070     1.6160 C.ar  1 <1>  -0.1500 
 16 H        5.7080    -1.7780     2.5500 H     1 <1>   0.1500 
 17 C        5.7730    -0.5240     0.7990 C.ar  1 <1>  -0.1500 
 18 H        6.6890    -0.0150     1.0800 H     1 <1>   0.1500 
 19 C        5.1340    -0.1940    -0.3880 C.ar  1 <1>   0.1900 
 20 F        5.6590     0.7520    -1.1780 F     1 <1>  -0.1900 
 21 C        3.9570    -0.8290    -0.7740 C.ar  1 <1>  -0.1500 
 22 H        3.4940    -0.5380    -1.7110 H     1 <1>   0.1500 
 23 C       -1.9960    -2.7400    -0.1820 C.2   1 <1>  -0.1810 
 24 C       -2.6450    -1.6380    -0.6990 C.2   1 <1>  -0.3320 
 25 N       -1.8370    -1.0600    -1.6370 N.pl3 1 <1>   0.0330 
 26 H       -2.0670    -0.2290    -2.1640 H     1 <1>   0.2700 
 27 C       -3.9810    -1.1300    -0.2870 C.3   1 <1>   0.1800 
 28 H       -4.5790    -0.8430    -1.1590 H     1 <1>   0.0000 
 29 H       -3.8470    -0.2360     0.3350 H     1 <1>   0.0000 
 30 C       -4.7220    -2.2110     0.5220 C.3   1 <1>   0.0000 
 31 H       -5.1230    -2.9690    -0.1640 H     1 <1>   0.0000 
 32 H       -5.5780    -1.7600     1.0360 H     1 <1>   0.0000 
 33 C       -3.8020    -2.9050     1.5450 C.3   1 <1>   0.0000 
 34 H       -4.3740    -3.6380     2.1250 H     1 <1>   0.0000 
 35 H       -3.4300    -2.1540     2.2540 H     1 <1>   0.0000 
 36 C       -2.6070    -3.6070     0.8700 C.3   1 <1>   0.1810 
 37 H       -2.9490    -4.5370     0.4020 H     1 <1>   0.0000 
 38 H       -1.8630    -3.8720     1.6290 H     1 <1>   0.0000 
@<TRIPOS>BOND
  1   1   2  1   
  2   2   3  1   
  3   3   4  2   
  4   3  25  1   
  5   4   5  1   
  6   4  23  1   
  7   5   6  1   
  8   5   7  1   
  9   5   8  1   
 10   8   9  2   
 11   8  10  am  
 12  10  11  1   
 13  10  12  1   
 14  12  13  ar  
 15  12  21  ar  
 16  13  14  1   
 17  13  15  ar  
 18  15  16  1   
 19  15  17  ar  
 20  17  18  1   
 21  17  19  ar  
 22  19  20  1   
 23  19  21  ar  
 24  21  22  1   
 25  23  24  2   
 26  23  36  1   
 27  24  25  1   
 28  24  27  1   
 29  25  26  1   
 30  27  28  1   
 31  27  29  1   
 32  27  30  1   
 33  30  31  1   
 34  30  32  1   
 35  30  33  1   
 36  33  34  1   
 37  33  35  1   
 38  33  36  1   
 39  36  37  1   
 40  36  38  1   
@<TRIPOS>SUBSTRUCTURE
  1 ****  10 GROUP 4 **** **** 0

# MOE 2022.02 (io_trps.svl 2020.11)

@<TRIPOS>MOLECULE
CEP076
32 34 1 0 0 
SMALL
USER_CHARGES


@<TRIPOS>ATOM
  1 H        1.8750    -2.4660    -1.3330 H     1 <1>   0.4500 
  2 O        1.4180    -1.6120    -1.3110 O.3   1 <1>  -0.5270 
  3 C        2.2890    -0.7050    -0.7960 C.2   1 <1>   0.1770 
  4 C        1.9880     0.5540    -0.4380 C.2   1 <1>   0.0140 
  5 C        0.7590     1.2980    -0.4880 C.2   1 <1>  -0.1500 
  6 H        0.8590     2.2290    -1.0390 H     1 <1>   0.1500 
  7 C       -0.4160     0.9940     0.0880 C.2   1 <1>   0.1010 
  8 S       -0.6850    -0.4210     1.1110 S.3   1 <1>  -0.2020 
  9 C       -2.3410     0.0470     1.3990 C.2   1 <1>  -0.0490 
 10 H       -2.9880    -0.5560     2.0230 H     1 <1>   0.1500 
 11 C       -2.7250     1.1800     0.7990 C.2   1 <1>  -0.1500 
 12 H       -3.7160     1.6030     0.8770 H     1 <1>   0.1500 
 13 C       -1.6540     1.7780     0.0260 C.2   1 <1>   0.0000 
 14 C       -1.8460     2.9190    -0.6520 C.2   1 <1>  -0.3000 
 15 H       -1.0650     3.3860    -1.2400 H     1 <1>   0.1500 
 16 H       -2.8040     3.4290    -0.6400 H     1 <1>   0.1500 
 17 C        3.3110     1.1440    -0.0290 C.2   1 <1>   0.6160 
 18 O        3.4460     2.3070     0.3210 O.2   1 <1>  -0.5700 
 19 N        4.2610     0.1160    -0.1550 N.am  1 <1>  -0.1570 
 20 C        5.6460     0.1290     0.1220 C.ar  1 <1>   0.1170 
 21 C        6.2700     1.2850     0.6150 C.ar  1 <1>  -0.1500 
 22 H        5.7070     2.1950     0.7990 H     1 <1>   0.1500 
 23 C        7.6420     1.3090     0.8920 C.ar  1 <1>  -0.1500 
 24 H        8.0980     2.2190     1.2740 H     1 <1>   0.1500 
 25 C        8.4170     0.1750     0.6810 C.ar  1 <1>  -0.1500 
 26 H        9.4830     0.1930     0.8970 H     1 <1>   0.1500 
 27 C        7.8210    -0.9830     0.1940 C.ar  1 <1>  -0.1500 
 28 H        8.4230    -1.8730     0.0270 H     1 <1>   0.1500 
 29 C        6.4480    -1.0060    -0.0830 C.ar  1 <1>  -0.1500 
 30 H        6.0380    -1.9340    -0.4610 H     1 <1>   0.1500 
 31 N        3.6030    -1.0000    -0.6300 N.pl3 1 <1>  -0.5200 
 32 H        4.0380    -1.8850    -0.8290 H     1 <1>   0.4000 
@<TRIPOS>BOND
  1   1   2  1   
  2   2   3  1   
  3   3   4  2   
  4   3  31  1   
  5   4   5  1   
  6   4  17  1   
  7   5   6  1   
  8   5   7  2   
  9   7   8  1   
 10   7  13  1   
 11   8   9  1   
 12   9  10  1   
 13   9  11  2   
 14  11  12  1   
 15  11  13  1   
 16  13  14  2   
 17  14  15  1   
 18  14  16  1   
 19  17  18  2   
 20  17  19  am  
 21  19  20  1   
 22  19  31  1   
 23  20  21  ar  
 24  20  29  ar  
 25  21  22  1   
 26  21  23  ar  
 27  23  24  1   
 28  23  25  ar  
 29  25  26  1   
 30  25  27  ar  
 31  27  28  1   
 32  27  29  ar  
 33  29  30  1   
 34  31  32  1   
@<TRIPOS>SUBSTRUCTURE
  1 ****   4 GROUP 4 **** **** 0

# MOE 2022.02 (io_trps.svl 2020.11)

@<TRIPOS>MOLECULE
CEP077
39 41 1 0 0 
SMALL
USER_CHARGES


@<TRIPOS>ATOM
  1 H        3.8820    -1.7830     1.5200 H     1 <1>   0.1500 
  2 C        3.3990    -0.8610     1.2070 C.ar  1 <1>  -0.1500 
  3 C        2.0030    -0.8030     1.1210 C.ar  1 <1>  -0.1500 
  4 H        1.4540    -1.7100     1.3570 H     1 <1>   0.1500 
  5 C        1.3270     0.3770     0.7580 C.ar  1 <1>   0.1000 
  6 C        2.1290     1.5030     0.4790 C.ar  1 <1>   0.1170 
  7 C        3.5260     1.4600     0.5590 C.ar  1 <1>  -0.1500 
  8 H        4.1260     2.3420     0.3550 H     1 <1>   0.1500 
  9 C        4.1580     0.2690     0.9070 C.ar  1 <1>   0.0860 
 10 C        5.6320     0.2490     1.0190 C.2   1 <1>   0.5440 
 11 O        6.1460     1.0720     1.7720 O.2   1 <1>  -0.5700 
 12 N        6.3550    -0.6830     0.2790 N.am  1 <1>  -0.6600 
 13 C        5.8080    -1.5190    -0.7810 C.3   1 <1>   0.3000 
 14 H        4.8420    -1.1550    -1.1350 H     1 <1>   0.0000 
 15 H        5.7010    -2.5390    -0.4010 H     1 <1>   0.0000 
 16 H        6.5010    -1.5200    -1.6290 H     1 <1>   0.0000 
 17 C        7.7740    -0.8420     0.5520 C.3   1 <1>   0.3000 
 18 H        7.9790    -1.8980     0.7490 H     1 <1>   0.0000 
 19 H        8.3390    -0.5190    -0.3280 H     1 <1>   0.0000 
 20 H        8.0960    -0.2550     1.4160 H     1 <1>   0.0000 
 21 N        1.5430     2.7080     0.0830 N.am  1 <1>  -0.5470 
 22 H        2.1170     3.5070    -0.1470 H     1 <1>   0.3700 
 23 C        0.1960     2.8880    -0.0300 C.2   1 <1>   0.5690 
 24 O       -0.2390     3.9750    -0.4190 O.2   1 <1>  -0.5700 
 25 C       -0.7240     1.7320     0.3800 C.3   1 <1>   0.4300 
 26 H       -1.2170     2.0740     1.3000 H     1 <1>   0.0000 
 27 N       -0.0570     0.4440     0.6720 N.pl3 1 <1>  -0.8380 
 28 C       -0.9010    -0.7380     0.8650 C.3   1 <1>   0.3690 
 29 H       -0.6710    -1.2210     1.8210 H     1 <1>   0.0000 
 30 H       -0.7080    -1.4590     0.0610 H     1 <1>   0.0000 
 31 C       -2.3860    -0.3830     0.8750 C.3   1 <1>   0.0000 
 32 H       -2.6140     0.1970     1.7790 H     1 <1>   0.0000 
 33 H       -2.9900    -1.2960     0.9340 H     1 <1>   0.0000 
 34 C       -2.7900     0.4260    -0.3520 C.3   1 <1>   0.0000 
 35 H       -2.9240    -0.2440    -1.2100 H     1 <1>   0.0000 
 36 H       -3.7680     0.8870    -0.1690 H     1 <1>   0.0000 
 37 C       -1.7700     1.5050    -0.7190 C.3   1 <1>   0.0000 
 38 H       -2.2990     2.4370    -0.9570 H     1 <1>   0.0000 
 39 H       -1.2600     1.2080    -1.6470 H     1 <1>   0.0000 
@<TRIPOS>BOND
  1   1   2  1   
  2   2   3  ar  
  3   2   9  ar  
  4   3   4  1   
  5   3   5  ar  
  6   5   6  ar  
  7   5  27  1   
  8   6   7  ar  
  9   6  21  1   
 10   7   8  1   
 11   7   9  ar  
 12   9  10  1   
 13  10  11  2   
 14  10  12  am  
 15  12  13  1   
 16  12  17  1   
 17  13  14  1   
 18  13  15  1   
 19  13  16  1   
 20  17  18  1   
 21  17  19  1   
 22  17  20  1   
 23  21  22  1   
 24  21  23  am  
 25  23  24  2   
 26  23  25  1   
 27  25  26  1   
 28  25  27  1   
 29  25  37  1   
 30  27  28  1   
 31  28  29  1   
 32  28  30  1   
 33  28  31  1   
 34  31  32  1   
 35  31  33  1   
 36  31  34  1   
 37  34  35  1   
 38  34  36  1   
 39  34  37  1   
 40  37  38  1   
 41  37  39  1   
@<TRIPOS>SUBSTRUCTURE
  1 ****   5 GROUP 4 **** **** 0

# MOE 2022.02 (io_trps.svl 2020.11)

@<TRIPOS>MOLECULE
CEP078
32 34 1 0 0 
SMALL
USER_CHARGES


@<TRIPOS>ATOM
  1 H       -0.0030    -1.3480    -1.0910 H     1 <1>   0.0600 
  2 C        0.1340    -2.2080    -0.4120 C.2   1 <1>   0.4750 
  3 N       -0.8440    -2.7070     0.2740 N.2   1 <1>  -0.5120 
  4 N       -2.0560    -2.1010     0.1070 N.am  1 <1>  -0.3680 
  5 H       -2.1390    -1.3120    -0.5240 H     1 <1>   0.3700 
  6 C       -3.1630    -2.5740     0.7950 C.2   1 <1>   0.6160 
  7 O       -3.1950    -3.5470     1.5400 O.2   1 <1>  -0.5700 
  8 C       -4.3940    -1.7860     0.5110 C.2   1 <1>  -0.0140 
  9 C       -4.3700    -0.4870     0.8530 C.2   1 <1>  -0.1360 
 10 H       -3.5160    -0.0080     1.3190 H     1 <1>   0.1500 
 11 C       -5.5390     0.3860     0.6250 C.2   1 <1>   0.6160 
 12 O       -5.4890     1.5780     0.9080 O.2   1 <1>  -0.5700 
 13 N       -6.6480    -0.1930     0.0790 N.am  1 <1>  -0.5470 
 14 H       -7.4410     0.4170    -0.0690 H     1 <1>   0.3700 
 15 C       -6.7260    -1.5480    -0.2680 C.ar  1 <1>   0.1170 
 16 C       -7.9080    -2.0460    -0.8180 C.ar  1 <1>  -0.1500 
 17 H       -8.7670    -1.4010    -0.9780 H     1 <1>   0.1500 
 18 C       -7.9900    -3.3930    -1.1670 C.ar  1 <1>  -0.1500 
 19 H       -8.9080    -3.7910    -1.5930 H     1 <1>   0.1500 
 20 C       -6.8960    -4.2340    -0.9650 C.ar  1 <1>  -0.1500 
 21 H       -6.9630    -5.2860    -1.2320 H     1 <1>   0.1500 
 22 C       -5.7130    -3.7320    -0.4140 C.ar  1 <1>  -0.1500 
 23 H       -4.8810    -4.4160    -0.2610 H     1 <1>   0.1500 
 24 C       -5.6150    -2.3810    -0.0590 C.ar  1 <1>   0.0280 
 25 C        1.4550    -2.7560    -0.3190 C.2   1 <1>   0.0550 
 26 O        2.4430    -2.1760    -1.0640 O.3   1 <1>  -0.2800 
 27 C        3.5880    -2.8610    -0.8090 C.2   1 <1>  -0.0100 
 28 H        4.4680    -2.5130    -1.3330 H     1 <1>   0.1500 
 29 C        3.3550    -3.8740     0.0890 C.2   1 <1>  -0.1500 
 30 H        4.0860    -4.5740     0.4680 H     1 <1>   0.1500 
 31 C        1.9770    -3.8080     0.4080 C.2   1 <1>  -0.1500 
 32 H        1.4200    -4.4450     1.0830 H     1 <1>   0.1500 
@<TRIPOS>BOND
  1   1   2  1   
  2   2   3  2   
  3   2  25  1   
  4   3   4  1   
  5   4   5  1   
  6   4   6  am  
  7   6   7  2   
  8   6   8  1   
  9   8   9  2   
 10   8  24  1   
 11   9  10  1   
 12   9  11  1   
 13  11  12  2   
 14  11  13  am  
 15  13  14  1   
 16  13  15  1   
 17  15  16  ar  
 18  15  24  ar  
 19  16  17  1   
 20  16  18  ar  
 21  18  19  1   
 22  18  20  ar  
 23  20  21  1   
 24  20  22  ar  
 25  22  23  1   
 26  22  24  ar  
 27  25  26  1   
 28  25  31  2   
 29  26  27  1   
 30  27  28  1   
 31  27  29  2   
 32  29  30  1   
 33  29  31  1   
 34  31  32  1   
@<TRIPOS>SUBSTRUCTURE
  1 ****   6 GROUP 4 **** **** 0

# MOE 2022.02 (io_trps.svl 2020.11)

@<TRIPOS>MOLECULE
CEP079
40 42 1 0 0 
SMALL
USER_CHARGES


@<TRIPOS>ATOM
  1 H        0.4880     3.1130    -1.4130 H     1 <1>   0.1500 
  2 C        0.6350     2.2530    -0.7590 C.2   1 <1>  -0.1040 
  3 C        1.9930     1.8750    -0.5800 C.2   1 <1>  -0.0460 
  4 C        2.6110     0.6540    -0.9070 C.2   1 <1>   0.1390 
  5 H        2.1700    -0.2360    -1.3390 H     1 <1>   0.1500 
  6 N        3.9120     0.6540    -0.6150 N.2   1 <1>  -0.7070 
  7 N        4.1350     1.8940    -0.1320 N.pl3 1 <1>   0.3140 
  8 C        5.4800     2.2470     0.2840 C.3   1 <1>   0.2560 
  9 H        5.4090     2.9980     1.0760 H     1 <1>   0.0000 
 10 H        5.9370     1.3520     0.7210 H     1 <1>   0.0000 
 11 C        6.3190     2.7620    -0.8720 C.3   1 <1>   0.0000 
 12 H        5.8730     3.6580    -1.3160 H     1 <1>   0.0000 
 13 H        6.4110     2.0090    -1.6610 H     1 <1>   0.0000 
 14 H        7.3250     3.0180    -0.5260 H     1 <1>   0.0000 
 15 C        3.0060     2.6810    -0.1010 C.2   1 <1>  -0.3320 
 16 C        3.0050     4.0860     0.3800 C.3   1 <1>   0.1800 
 17 H        3.2080     4.1220     1.4550 H     1 <1>   0.0000 
 18 H        2.0380     4.5690     0.2070 H     1 <1>   0.0000 
 19 H        3.7660     4.6770    -0.1390 H     1 <1>   0.0000 
 20 C       -0.4610     1.6760    -0.2420 C.2   1 <1>   0.0140 
 21 C       -0.6930     0.5670     0.6700 C.2   1 <1>   0.1000 
 22 C        0.1920    -0.1190     1.3990 C.2   1 <1>  -0.3000 
 23 H       -0.1280    -0.9140     2.0630 H     1 <1>   0.1500 
 24 H        1.2540     0.0940     1.3900 H     1 <1>   0.1500 
 25 N       -2.0490     0.3830     0.7030 N.pl3 1 <1>  -0.5200 
 26 H       -2.4850    -0.3440     1.2490 H     1 <1>   0.4000 
 27 N       -2.7420     1.3100    -0.0670 N.am  1 <1>  -0.1570 
 28 C       -4.1540     1.2990    -0.1650 C.ar  1 <1>   0.1170 
 29 C       -4.9320     0.3390     0.5030 C.ar  1 <1>  -0.1500 
 30 H       -4.4840    -0.4310     1.1200 H     1 <1>   0.1500 
 31 C       -6.3290     0.3320     0.3970 C.ar  1 <1>  -0.1500 
 32 H       -6.9090    -0.4220     0.9230 H     1 <1>   0.1500 
 33 C       -6.9760     1.2860    -0.3800 C.ar  1 <1>  -0.1500 
 34 H       -8.0590     1.2820    -0.4640 H     1 <1>   0.1500 
 35 C       -6.2260     2.2460    -1.0500 C.ar  1 <1>  -0.1500 
 36 H       -6.7220     2.9970    -1.6610 H     1 <1>   0.1500 
 37 C       -4.8300     2.2510    -0.9430 C.ar  1 <1>  -0.1500 
 38 H       -4.2930     3.0220    -1.4870 H     1 <1>   0.1500 
 39 C       -1.8220     2.1840    -0.6720 C.2   1 <1>   0.6160 
 40 O       -1.9990     3.1460    -1.4030 O.2   1 <1>  -0.5700 
@<TRIPOS>BOND
  1   1   2  1   
  2   2   3  1   
  3   2  20  2   
  4   3   4  1   
  5   3  15  2   
  6   4   5  1   
  7   4   6  2   
  8   6   7  1   
  9   7   8  1   
 10   7  15  1   
 11   8   9  1   
 12   8  10  1   
 13   8  11  1   
 14  11  12  1   
 15  11  13  1   
 16  11  14  1   
 17  15  16  1   
 18  16  17  1   
 19  16  18  1   
 20  16  19  1   
 21  20  21  1   
 22  20  39  1   
 23  21  22  2   
 24  21  25  1   
 25  22  23  1   
 26  22  24  1   
 27  25  26  1   
 28  25  27  1   
 29  27  28  1   
 30  27  39  am  
 31  28  29  ar  
 32  28  37  ar  
 33  29  30  1   
 34  29  31  ar  
 35  31  32  1   
 36  31  33  ar  
 37  33  34  1   
 38  33  35  ar  
 39  35  36  1   
 40  35  37  ar  
 41  37  38  1   
 42  39  40  2   
@<TRIPOS>SUBSTRUCTURE
  1 ****  20 GROUP 4 **** **** 0

# MOE 2022.02 (io_trps.svl 2020.11)

@<TRIPOS>MOLECULE
CEP080
40 42 1 0 0 
SMALL
USER_CHARGES


@<TRIPOS>ATOM
  1 H       -0.9070    -4.3870    -2.7560 H     1 <1>   0.4000 
  2 N       -0.6370    -3.5450    -2.2440 N.2   1 <1>  -0.8500 
  3 C       -1.5660    -3.2270    -1.4070 C.2   1 <1>   0.5600 
  4 N       -2.7220    -3.9330    -1.2860 N.pl3 1 <1>  -0.5500 
  5 H       -2.8590    -4.7470    -1.8700 H     1 <1>   0.4000 
  6 C       -3.7340    -3.6210    -0.4030 C.2   1 <1>  -0.0380 
  7 C       -4.9300    -4.5370    -0.4370 C.3   1 <1>   0.1380 
  8 H       -5.8130    -4.1200     0.0510 H     1 <1>   0.0000 
  9 H       -4.6860    -5.4900     0.0440 H     1 <1>   0.0000 
 10 H       -5.2190    -4.7430    -1.4740 H     1 <1>   0.0000 
 11 C       -3.6210    -2.5520     0.4110 C.2   1 <1>  -0.1240 
 12 C       -4.6000    -2.0940     1.4500 C.3   1 <1>   0.1380 
 13 H       -5.0680    -1.1540     1.1410 H     1 <1>   0.0000 
 14 H       -4.0950    -1.9310     2.4080 H     1 <1>   0.0000 
 15 H       -5.3950    -2.8180     1.6430 H     1 <1>   0.0000 
 16 C       -2.3740    -1.7120     0.3050 C.2   1 <1>   0.6160 
 17 O       -2.2750    -0.6910     0.9880 O.2   1 <1>  -0.5700 
 18 N       -1.4010    -2.1250    -0.5940 N.am  1 <1>  -0.4200 
 19 C       -0.1570    -1.3690    -0.6500 C.3   1 <1>   0.3610 
 20 H        0.2170    -1.3540    -1.6770 H     1 <1>   0.0000 
 21 H       -0.3200    -0.3350    -0.3290 H     1 <1>   0.0000 
 22 C        0.8910    -1.9980     0.2840 C.2   1 <1>   0.5690 
 23 O        0.5720    -2.8300     1.1370 O.2   1 <1>  -0.5700 
 24 N        2.1860    -1.5150     0.1180 N.am  1 <1>  -0.4770 
 25 C        3.3160    -1.9160     0.8550 C.ar  1 <1>   0.1170 
 26 C        3.4190    -2.8720     1.8510 C.ar  1 <1>  -0.1500 
 27 H        2.5620    -3.4460     2.1850 H     1 <1>   0.1500 
 28 C        4.6700    -3.1010     2.4320 C.ar  1 <1>  -0.1500 
 29 H        4.7680    -3.8510     3.2140 H     1 <1>   0.1500 
 30 C        5.7960    -2.3770     2.0170 C.ar  1 <1>  -0.1500 
 31 H        6.7600    -2.5690     2.4800 H     1 <1>   0.1500 
 32 C        5.6850    -1.4100     1.0170 C.ar  1 <1>  -0.1500 
 33 H        6.5540    -0.8440     0.6990 H     1 <1>   0.1500 
 34 C        4.4390    -1.1940     0.4460 C.ar  1 <1>  -0.1440 
 35 C        4.0910    -0.1970    -0.6110 C.3   1 <1>   0.1440 
 36 H        4.6900    -0.3350    -1.5170 H     1 <1>   0.0000 
 37 H        4.2180     0.8240    -0.2380 H     1 <1>   0.0000 
 38 C        2.6120    -0.5070    -0.8680 C.3   1 <1>   0.3000 
 39 H        1.9880     0.3890    -0.7770 H     1 <1>   0.0000 
 40 H        2.4680    -0.9230    -1.8720 H     1 <1>   0.0000 
@<TRIPOS>BOND
  1   1   2  1   
  2   2   3  2   
  3   3   4  1   
  4   3  18  1   
  5   4   5  1   
  6   4   6  1   
  7   6   7  1   
  8   6  11  2   
  9   7   8  1   
 10   7   9  1   
 11   7  10  1   
 12  11  12  1   
 13  11  16  1   
 14  12  13  1   
 15  12  14  1   
 16  12  15  1   
 17  16  17  2   
 18  16  18  am  
 19  18  19  1   
 20  19  20  1   
 21  19  21  1   
 22  19  22  1   
 23  22  23  2   
 24  22  24  am  
 25  24  25  1   
 26  24  38  1   
 27  25  26  ar  
 28  25  34  ar  
 29  26  27  1   
 30  26  28  ar  
 31  28  29  1   
 32  28  30  ar  
 33  30  31  1   
 34  30  32  ar  
 35  32  33  1   
 36  32  34  ar  
 37  34  35  1   
 38  35  36  1   
 39  35  37  1   
 40  35  38  1   
 41  38  39  1   
 42  38  40  1   
@<TRIPOS>SUBSTRUCTURE
  1 ****  22 GROUP 4 **** **** 0

# MOE 2022.02 (io_trps.svl 2020.11)

@<TRIPOS>MOLECULE
CEP081
33 34 1 0 0 
SMALL
USER_CHARGES


@<TRIPOS>ATOM
  1 H        0.6240    -3.2990    -0.1880 H     1 <1>   0.1500 
  2 C        0.5310    -2.2430     0.0640 C.2   1 <1>  -0.1050 
  3 C       -0.6750    -1.7560     0.4110 C.2   1 <1>   0.0790 
  4 C       -0.9180    -0.4250     0.8370 C.1   1 <1>   0.4920 
  5 N       -1.1550     0.6590     1.1770 N.1   1 <1>  -0.5570 
  6 C       -1.8140    -2.7360     0.3960 C.2   1 <1>   0.6160 
  7 O       -1.5960    -3.9280     0.5880 O.2   1 <1>  -0.5700 
  8 N       -3.0500    -2.1740     0.1270 N.am  1 <1>  -0.5470 
  9 H       -3.0750    -1.1800    -0.1070 H     1 <1>   0.3700 
 10 C       -4.3260    -2.8100     0.1090 C.ar  1 <1>   0.1170 
 11 C       -4.4760    -4.1650     0.4390 C.ar  1 <1>  -0.1500 
 12 H       -3.6310    -4.7860     0.7200 H     1 <1>   0.1500 
 13 C       -5.7320    -4.7850     0.4280 C.ar  1 <1>  -0.1500 
 14 H       -5.8120    -5.8390     0.6900 H     1 <1>   0.1500 
 15 C       -6.8720    -4.0660     0.0890 C.ar  1 <1>  -0.1500 
 16 H       -7.8440    -4.5550     0.0830 H     1 <1>   0.1500 
 17 C       -6.7610    -2.7190    -0.2420 C.ar  1 <1>  -0.1500 
 18 H       -7.6650    -2.1730    -0.5060 H     1 <1>   0.1500 
 19 C       -5.4990    -2.0920    -0.2320 C.ar  1 <1>   0.1330 
 20 N       -5.4570    -0.6660    -0.5950 N.pl3 1 <1>   0.9070 
 21 O       -4.3480    -0.1560    -0.8200 O.2   1 <1>  -0.5200 
 22 O       -6.5300    -0.0500    -0.6580 O.2   1 <1>  -0.5200 
 23 C        1.7580    -1.5210     0.0160 C.2   1 <1>   0.0950 
 24 O        2.9620    -2.1940     0.0520 O.3   1 <1>  -0.2800 
 25 C        3.9760    -1.2950    -0.0140 C.2   1 <1>  -0.0400 
 26 C        5.3440    -1.8470     0.0260 C.3   1 <1>   0.1800 
 27 H        5.5090    -2.5220    -0.8190 H     1 <1>   0.0000 
 28 H        5.5040    -2.4060     0.9530 H     1 <1>   0.0000 
 29 H        6.0910    -1.0490    -0.0250 H     1 <1>   0.0000 
 30 C        3.4680    -0.0240    -0.1120 C.2   1 <1>  -0.1500 
 31 H        4.0360     0.8920    -0.1880 H     1 <1>   0.1500 
 32 C        2.0590    -0.1670    -0.1020 C.2   1 <1>  -0.1500 
 33 H        1.3530     0.6480    -0.1850 H     1 <1>   0.1500 
@<TRIPOS>BOND
  1   1   2  1   
  2   2   3  2   
  3   2  23  1   
  4   3   4  1   
  5   3   6  1   
  6   4   5  3   
  7   6   7  2   
  8   6   8  am  
  9   8   9  1   
 10   8  10  1   
 11  10  11  ar  
 12  10  19  ar  
 13  11  12  1   
 14  11  13  ar  
 15  13  14  1   
 16  13  15  ar  
 17  15  16  1   
 18  15  17  ar  
 19  17  18  1   
 20  17  19  ar  
 21  19  20  1   
 22  20  21  2   
 23  20  22  2   
 24  23  24  1   
 25  23  32  2   
 26  24  25  1   
 27  25  26  1   
 28  25  30  2   
 29  26  27  1   
 30  26  28  1   
 31  26  29  1   
 32  30  31  1   
 33  30  32  1   
 34  32  33  1   
@<TRIPOS>SUBSTRUCTURE
  1 ****   6 GROUP 4 **** **** 0

# MOE 2022.02 (io_trps.svl 2020.11)

@<TRIPOS>MOLECULE
CEP082
38 39 1 0 0 
SMALL
USER_CHARGES


@<TRIPOS>ATOM
  1 H       -9.6400     4.2390    -0.4800 H     1 <1>   0.1500 
  2 C       -8.5800     4.4630    -0.3930 C.ar  1 <1>  -0.1500 
  3 C       -7.7350     3.5910     0.2860 C.ar  1 <1>  -0.1500 
  4 H       -8.1340     2.6850     0.7350 H     1 <1>   0.1500 
  5 C       -6.3700     3.8770     0.3910 C.ar  1 <1>  -0.1500 
  6 H       -5.7440     3.1750     0.9370 H     1 <1>   0.1500 
  7 C       -5.8270     5.0460    -0.1620 C.ar  1 <1>   0.1170 
  8 N       -4.4420     5.3100    -0.0540 N.am  1 <1>  -0.1570 
  9 C       -3.4230     4.3580     0.0240 C.2   1 <1>   0.6160 
 10 O       -3.4630     3.1420     0.1480 O.2   1 <1>  -0.5700 
 11 C       -2.1250     5.1010    -0.1630 C.2   1 <1>   0.1230 
 12 N       -0.9670     4.3720    -0.2450 N.am  1 <1>  -0.5390 
 13 H       -1.0880     3.4200     0.0890 H     1 <1>   0.3700 
 14 C        0.2830     4.6530    -0.7590 C.2   1 <1>   0.5000 
 15 S        0.6130     5.7250    -2.0010 S.2   1 <1>  -0.3800 
 16 N        1.2390     3.8530    -0.1520 N.am  1 <1>  -0.7300 
 17 H        0.9340     3.2810     0.6230 H     1 <1>   0.3700 
 18 C        2.6500     3.7820    -0.5090 C.3   1 <1>   0.3000 
 19 H        2.7290     3.5430    -1.5750 H     1 <1>   0.0000 
 20 H        3.0970     4.7680    -0.3400 H     1 <1>   0.0000 
 21 C        3.3780     2.7340     0.3120 C.3   1 <1>   0.0000 
 22 H        2.9420     1.7410     0.1540 H     1 <1>   0.0000 
 23 H        4.4350     2.6940     0.0310 H     1 <1>   0.0000 
 24 H        3.3140     2.9600     1.3820 H     1 <1>   0.0000 
 25 C       -2.4500     6.4070    -0.1560 C.2   1 <1>  -0.0380 
 26 C       -1.5300     7.5850    -0.1130 C.3   1 <1>   0.1380 
 27 H       -0.5100     7.3040     0.1600 H     1 <1>   0.0000 
 28 H       -1.5210     8.1030    -1.0760 H     1 <1>   0.0000 
 29 H       -1.8370     8.3000     0.6560 H     1 <1>   0.0000 
 30 N       -3.8320     6.5790    -0.0340 N.pl3 1 <1>  -0.4890 
 31 C       -4.5550     7.8120     0.1980 C.3   1 <1>   0.3690 
 32 H       -3.9710     8.5100     0.8060 H     1 <1>   0.0000 
 33 H       -4.7800     8.3100    -0.7500 H     1 <1>   0.0000 
 34 H       -5.4810     7.6510     0.7570 H     1 <1>   0.0000 
 35 C       -6.6910     5.8960    -0.8670 C.ar  1 <1>  -0.1500 
 36 H       -6.3100     6.7630    -1.3960 H     1 <1>   0.1500 
 37 C       -8.0570     5.6120    -0.9770 C.ar  1 <1>  -0.1500 
 38 H       -8.7070     6.2820    -1.5340 H     1 <1>   0.1500 
@<TRIPOS>BOND
  1   1   2  1   
  2   2   3  ar  
  3   2  37  ar  
  4   3   4  1   
  5   3   5  ar  
  6   5   6  1   
  7   5   7  ar  
  8   7   8  1   
  9   7  35  ar  
 10   8   9  am  
 11   8  30  1   
 12   9  10  2   
 13   9  11  1   
 14  11  12  1   
 15  11  25  2   
 16  12  13  1   
 17  12  14  am  
 18  14  15  2   
 19  14  16  am  
 20  16  17  1   
 21  16  18  1   
 22  18  19  1   
 23  18  20  1   
 24  18  21  1   
 25  21  22  1   
 26  21  23  1   
 27  21  24  1   
 28  25  26  1   
 29  25  30  1   
 30  26  27  1   
 31  26  28  1   
 32  26  29  1   
 33  30  31  1   
 34  31  32  1   
 35  31  33  1   
 36  31  34  1   
 37  35  36  1   
 38  35  37  ar  
 39  37  38  1   
@<TRIPOS>SUBSTRUCTURE
  1 ****   9 GROUP 4 **** **** 0

# MOE 2022.02 (io_trps.svl 2020.11)

@<TRIPOS>MOLECULE
CEP083
32 34 1 0 0 
SMALL
USER_CHARGES


@<TRIPOS>ATOM
  1 H        3.2520     4.7690    -0.3660 H     1 <1>   0.1500 
  2 C        2.1700     4.6890    -0.3130 C.ar  1 <1>  -0.1500 
  3 C        1.3980     5.8270    -0.0900 C.ar  1 <1>  -0.1500 
  4 H        1.8750     6.7960     0.0320 H     1 <1>   0.1500 
  5 C        0.0070     5.7280    -0.0220 C.ar  1 <1>  -0.1500 
  6 H       -0.5810     6.6270     0.1540 H     1 <1>   0.1500 
  7 C       -0.6310     4.4900    -0.1820 C.ar  1 <1>  -0.1440 
  8 C       -2.1350     4.3380    -0.0990 C.3   1 <1>   0.3890 
  9 H       -2.4580     3.7520    -0.9680 H     1 <1>   0.0000 
 10 H       -2.3590     3.7720     0.8140 H     1 <1>   0.0000 
 11 N       -2.8540     5.6090    -0.0780 N.2   1 <1>  -0.6960 
 12 C       -4.1450     5.5990    -0.0410 C.2   1 <1>   0.5000 
 13 C       -4.8250     7.0060    -0.0220 C.2   1 <1>   0.6300 
 14 O       -4.1810     8.0460    -0.0280 O.2   1 <1>  -0.5700 
 15 N       -6.2020     7.0080     0.0040 N.am  1 <1>  -0.5470 
 16 H       -6.6360     7.9210     0.0130 H     1 <1>   0.3700 
 17 C       -6.9830     5.8470     0.0180 C.ar  1 <1>   0.1170 
 18 C       -8.3740     5.9590     0.0420 C.ar  1 <1>  -0.1500 
 19 H       -8.8570     6.9320     0.0490 H     1 <1>   0.1500 
 20 C       -9.1580     4.8060     0.0560 C.ar  1 <1>  -0.1500 
 21 H      -10.2420     4.8870     0.0740 H     1 <1>   0.1500 
 22 C       -8.5530     3.5500     0.0460 C.ar  1 <1>  -0.1500 
 23 H       -9.1680     2.6530     0.0570 H     1 <1>   0.1500 
 24 C       -7.1600     3.4410     0.0230 C.ar  1 <1>  -0.1500 
 25 H       -6.7100     2.4510     0.0150 H     1 <1>   0.1500 
 26 C       -6.3610     4.5880     0.0080 C.ar  1 <1>   0.1000 
 27 N       -4.9650     4.4900    -0.0180 N.pl3 1 <1>  -0.5500 
 28 H       -4.5610     3.5680    -0.0210 H     1 <1>   0.4000 
 29 C        0.1610     3.3500    -0.4000 C.ar  1 <1>  -0.1500 
 30 H       -0.3050     2.3750    -0.5200 H     1 <1>   0.1500 
 31 C        1.5520     3.4510    -0.4670 C.ar  1 <1>  -0.1500 
 32 H        2.1530     2.5620    -0.6390 H     1 <1>   0.1500 
@<TRIPOS>BOND
  1   1   2  1   
  2   2   3  ar  
  3   2  31  ar  
  4   3   4  1   
  5   3   5  ar  
  6   5   6  1   
  7   5   7  ar  
  8   7   8  1   
  9   7  29  ar  
 10   8   9  1   
 11   8  10  1   
 12   8  11  1   
 13  11  12  2   
 14  12  13  1   
 15  12  27  1   
 16  13  14  2   
 17  13  15  am  
 18  15  16  1   
 19  15  17  1   
 20  17  18  ar  
 21  17  26  ar  
 22  18  19  1   
 23  18  20  ar  
 24  20  21  1   
 25  20  22  ar  
 26  22  23  1   
 27  22  24  ar  
 28  24  25  1   
 29  24  26  ar  
 30  26  27  1   
 31  27  28  1   
 32  29  30  1   
 33  29  31  ar  
 34  31  32  1   
@<TRIPOS>SUBSTRUCTURE
  1 ****  12 GROUP 4 **** **** 0

# MOE 2022.02 (io_trps.svl 2020.11)

@<TRIPOS>MOLECULE
CEP084
31 32 1 0 0 
SMALL
USER_CHARGES


@<TRIPOS>ATOM
  1 H       13.5710    -3.5320     0.1820 H     1 <1>   0.5000 
  2 O       12.8480    -2.8930     0.0030 O.3   1 <1>  -0.6500 
  3 C       11.7290    -3.6450     0.1170 C.2   1 <1>   0.6590 
  4 O       11.8180    -4.8280     0.3980 O.2   1 <1>  -0.5700 
  5 C       10.4740    -2.8240    -0.1280 C.3   1 <1>   0.3410 
  6 H       10.5580    -2.3670    -1.1200 H     1 <1>   0.0000 
  7 H       10.4330    -2.0470     0.6430 H     1 <1>   0.0000 
  8 O        9.2870    -3.6040    -0.0800 O.3   1 <1>  -0.5600 
  9 C        8.1180    -2.8020    -0.1690 C.3   1 <1>   0.3410 
 10 H        8.0600    -2.1940     0.7380 H     1 <1>   0.0000 
 11 H        8.1940    -2.1530    -1.0490 H     1 <1>   0.0000 
 12 C        6.8150    -3.6240    -0.3160 C.2   1 <1>   0.5690 
 13 O        6.8760    -4.8000    -0.6750 O.2   1 <1>  -0.5700 
 14 N        5.6160    -2.9330    -0.0430 N.am  1 <1>  -0.4770 
 15 C        4.3430    -3.5910     0.1050 C.ar  1 <1>   0.1170 
 16 C        4.2150    -4.9840     0.2200 C.ar  1 <1>  -0.1500 
 17 H        5.0770    -5.6440     0.2290 H     1 <1>   0.1500 
 18 C        2.9620    -5.5960     0.3550 C.ar  1 <1>  -0.1500 
 19 H        2.9010    -6.6790     0.4400 H     1 <1>   0.1500 
 20 C        1.8060    -4.8280     0.3830 C.ar  1 <1>  -0.1500 
 21 H        0.8350    -5.3050     0.4850 H     1 <1>   0.1500 
 22 C        1.9020    -3.4440     0.2850 C.ar  1 <1>  -0.1500 
 23 H        0.9920    -2.8510     0.3140 H     1 <1>   0.1500 
 24 C        3.1560    -2.8330     0.1560 C.ar  1 <1>   0.1170 
 25 N        3.1770    -1.4390     0.0650 N.am  1 <1>  -0.5470 
 26 H        2.3130    -0.9130     0.0500 H     1 <1>   0.3700 
 27 C        4.3230    -0.7120    -0.0080 C.2   1 <1>   0.5690 
 28 O        4.2900     0.5160    -0.0740 O.2   1 <1>  -0.5700 
 29 C        5.6280    -1.4740     0.1030 C.3   1 <1>   0.3610 
 30 H        6.2950    -1.0510    -0.6550 H     1 <1>   0.0000 
 31 H        6.0440    -1.2520     1.0930 H     1 <1>   0.0000 
@<TRIPOS>BOND
  1   1   2  1   
  2   2   3  1   
  3   3   4  2   
  4   3   5  1   
  5   5   6  1   
  6   5   7  1   
  7   5   8  1   
  8   8   9  1   
  9   9  10  1   
 10   9  11  1   
 11   9  12  1   
 12  12  13  2   
 13  12  14  am  
 14  14  15  1   
 15  14  29  1   
 16  15  16  ar  
 17  15  24  ar  
 18  16  17  1   
 19  16  18  ar  
 20  18  19  1   
 21  18  20  ar  
 22  20  21  1   
 23  20  22  ar  
 24  22  23  1   
 25  22  24  ar  
 26  24  25  1   
 27  25  26  1   
 28  25  27  am  
 29  27  28  2   
 30  27  29  1   
 31  29  30  1   
 32  29  31  1   
@<TRIPOS>SUBSTRUCTURE
  1 ****  14 GROUP 4 **** **** 0

# MOE 2022.02 (io_trps.svl 2020.11)

@<TRIPOS>MOLECULE
CEP085
34 35 1 0 0 
SMALL
USER_CHARGES


@<TRIPOS>ATOM
  1 H        0.2710     4.2860     0.7650 H     1 <1>   0.1500 
  2 C       -0.2340     3.3680     0.4830 C.ar  1 <1>  -0.1500 
  3 C       -1.6010     3.3400     0.1820 C.ar  1 <1>   0.0820 
  4 O       -2.4220     4.4400     0.2120 O.3   1 <1>  -0.3630 
  5 C       -1.8380     5.6890     0.5560 C.3   1 <1>   0.2800 
  6 H       -1.0700     5.9790    -0.1680 H     1 <1>   0.0000 
  7 H       -1.4370     5.6700     1.5750 H     1 <1>   0.0000 
  8 H       -2.6270     6.4470     0.5250 H     1 <1>   0.0000 
  9 C       -2.2150     2.1210    -0.1800 C.ar  1 <1>   0.0820 
 10 O       -3.5580     2.1840    -0.4590 O.3   1 <1>  -0.3630 
 11 C       -4.2160     0.9860    -0.8450 C.3   1 <1>   0.2800 
 12 H       -5.2670     1.2270    -1.0320 H     1 <1>   0.0000 
 13 H       -4.1830     0.2420    -0.0420 H     1 <1>   0.0000 
 14 H       -3.7960     0.5870    -1.7740 H     1 <1>   0.0000 
 15 C       -1.4520     0.9490    -0.2330 C.ar  1 <1>  -0.1500 
 16 H       -1.8970     0.0000    -0.5070 H     1 <1>   0.1500 
 17 C       -0.0910     0.9990     0.0700 C.ar  1 <1>   0.1170 
 18 C        0.5310     2.2020     0.4290 C.ar  1 <1>   0.1790 
 19 N        1.9010     2.2810     0.7390 N.2   1 <1>  -0.6290 
 20 C        2.6090     1.1830     0.6880 C.2   1 <1>   0.4500 
 21 C        4.0750     1.2790     1.0250 C.2   1 <1>   0.7200 
 22 O        4.4990     1.1610     2.1600 O.2   1 <1>  -0.5700 
 23 O        4.7660     1.5240    -0.1080 O.3   1 <1>  -0.4300 
 24 C        6.1780     1.6490     0.0940 C.3   1 <1>   0.2800 
 25 H        6.3820     2.4830     0.7750 H     1 <1>   0.0000 
 26 H        6.5760     0.7200     0.5180 H     1 <1>   0.0000 
 27 C        6.8260     1.9160    -1.2510 C.3   1 <1>   0.0000 
 28 H        7.9100     2.0210    -1.1480 H     1 <1>   0.0000 
 29 H        6.4230     2.8310    -1.6990 H     1 <1>   0.0000 
 30 H        6.6140     1.1000    -1.9500 H     1 <1>   0.0000 
 31 C        2.0200    -0.1590     0.3040 C.2   1 <1>   0.6300 
 32 O        2.7250    -1.1550     0.2540 O.2   1 <1>  -0.5700 
 33 N        0.6770    -0.1690     0.0150 N.am  1 <1>  -0.5470 
 34 H        0.2660    -1.0570    -0.2400 H     1 <1>   0.3700 
@<TRIPOS>BOND
  1   1   2  1   
  2   2   3  ar  
  3   2  18  ar  
  4   3   4  1   
  5   3   9  ar  
  6   4   5  1   
  7   5   6  1   
  8   5   7  1   
  9   5   8  1   
 10   9  10  1   
 11   9  15  ar  
 12  10  11  1   
 13  11  12  1   
 14  11  13  1   
 15  11  14  1   
 16  15  16  1   
 17  15  17  ar  
 18  17  18  ar  
 19  17  33  1   
 20  18  19  1   
 21  19  20  2   
 22  20  21  1   
 23  20  31  1   
 24  21  22  2   
 25  21  23  1   
 26  23  24  1   
 27  24  25  1   
 28  24  26  1   
 29  24  27  1   
 30  27  28  1   
 31  27  29  1   
 32  27  30  1   
 33  31  32  2   
 34  31  33  am  
 35  33  34  1   
@<TRIPOS>SUBSTRUCTURE
  1 ****  18 GROUP 4 **** **** 0

# MOE 2022.02 (io_trps.svl 2020.11)

@<TRIPOS>MOLECULE
CEP086
32 34 1 0 0 
SMALL
USER_CHARGES


@<TRIPOS>ATOM
  1 H        1.6490     1.6090     1.3240 H     1 <1>   0.4500 
  2 O        2.4970     1.1740     1.1370 O.3   1 <1>  -0.5270 
  3 C        2.2560     0.0360     0.3880 C.2   1 <1>   0.0480 
  4 C        3.1410    -0.3690    -0.5400 C.2   1 <1>  -0.1240 
  5 C        4.4420     0.3330    -0.8290 C.3   1 <1>   0.2820 
  6 H        4.3850     1.3920    -0.5440 H     1 <1>   0.0000 
  7 H        4.6310     0.3630    -1.9110 H     1 <1>   0.0000 
  8 C        5.6230    -0.2930    -0.1210 C.ar  1 <1>  -0.1440 
  9 C        5.9310     0.0670     1.1990 C.ar  1 <1>  -0.1500 
 10 H        5.3240     0.8060     1.7180 H     1 <1>   0.1500 
 11 C        7.0110    -0.5190     1.8610 C.ar  1 <1>  -0.1500 
 12 H        7.2400    -0.2320     2.8830 H     1 <1>   0.1500 
 13 C        7.7900    -1.4760     1.2130 C.ar  1 <1>  -0.1500 
 14 H        8.6290    -1.9340     1.7290 H     1 <1>   0.1500 
 15 C        7.4890    -1.8480    -0.0960 C.ar  1 <1>  -0.1500 
 16 H        8.0900    -2.5990    -0.6000 H     1 <1>   0.1500 
 17 C        6.4100    -1.2610    -0.7600 C.ar  1 <1>  -0.1500 
 18 H        6.1800    -1.5700    -1.7780 H     1 <1>   0.1500 
 19 C        2.8130    -1.5360    -1.4130 C.2   1 <1>   0.6160 
 20 O        3.5540    -1.9090    -2.3180 O.2   1 <1>  -0.5700 
 21 N        1.6220    -2.1690    -1.1890 N.am  1 <1>  -0.5470 
 22 H        1.4290    -2.9520    -1.7990 H     1 <1>   0.3700 
 23 C        0.7130    -1.7980    -0.1970 C.ar  1 <1>   0.1170 
 24 C       -0.4610    -2.5400    -0.0420 C.ar  1 <1>  -0.1500 
 25 H       -0.6800    -3.3820    -0.6930 H     1 <1>   0.1500 
 26 C       -1.3580    -2.2050     0.9700 C.ar  1 <1>  -0.1500 
 27 H       -2.2720    -2.7810     1.0970 H     1 <1>   0.1500 
 28 C       -1.0680    -1.1410     1.8220 C.ar  1 <1>   0.1770 
 29 CL      -2.1650    -0.7420     3.0870 Cl    1 <1>  -0.1770 
 30 C        0.1040    -0.3970     1.6640 C.ar  1 <1>  -0.1500 
 31 H        0.3070     0.4030     2.3700 H     1 <1>   0.1500 
 32 C        1.0030    -0.7050     0.6330 C.ar  1 <1>   0.0280 
@<TRIPOS>BOND
  1   1   2  1   
  2   2   3  1   
  3   3   4  2   
  4   3  32  1   
  5   4   5  1   
  6   4  19  1   
  7   5   6  1   
  8   5   7  1   
  9   5   8  1   
 10   8   9  ar  
 11   8  17  ar  
 12   9  10  1   
 13   9  11  ar  
 14  11  12  1   
 15  11  13  ar  
 16  13  14  1   
 17  13  15  ar  
 18  15  16  1   
 19  15  17  ar  
 20  17  18  1   
 21  19  20  2   
 22  19  21  am  
 23  21  22  1   
 24  21  23  1   
 25  23  24  ar  
 26  23  32  ar  
 27  24  25  1   
 28  24  26  ar  
 29  26  27  1   
 30  26  28  ar  
 31  28  29  1   
 32  28  30  ar  
 33  30  31  1   
 34  30  32  ar  
@<TRIPOS>SUBSTRUCTURE
  1 ****   4 GROUP 4 **** **** 0

# MOE 2022.02 (io_trps.svl 2020.11)

@<TRIPOS>MOLECULE
CEP087
40 41 1 0 0 
SMALL
USER_CHARGES


@<TRIPOS>ATOM
  1 H       -5.4270     4.0400    -2.1160 H     1 <1>   0.1500 
  2 C       -5.0060     3.3760    -1.3630 C.ar  1 <1>  -0.1500 
  3 C       -3.7110     3.5910    -0.8760 C.ar  1 <1>   0.0730 
  4 C       -2.9700     4.7000    -1.4030 C.1   1 <1>   0.4840 
  5 N       -2.3540     5.5920    -1.8180 N.1   1 <1>  -0.5570 
  6 C       -3.1700     2.7310     0.0960 C.ar  1 <1>   0.1170 
  7 N       -1.8660     2.9700     0.5890 N.am  1 <1>  -0.5470 
  8 H       -1.3460     3.7810     0.2460 H     1 <1>   0.3700 
  9 C       -1.1260     2.2330     1.5010 C.2   1 <1>   0.5690 
 10 O       -1.4680     1.1900     2.0500 O.2   1 <1>  -0.5700 
 11 C        0.2130     2.9080     1.8400 C.3   1 <1>   0.3310 
 12 H        0.9510     2.1410     2.1000 H     1 <1>   0.0000 
 13 H        0.0230     3.5230     2.7280 H     1 <1>   0.0000 
 14 N        0.6710     3.7650     0.7250 N.3   1 <1>  -0.8100 
 15 C        1.2590     2.9880    -0.3760 C.3   1 <1>   0.2700 
 16 H        0.5050     2.4790    -0.9830 H     1 <1>   0.0000 
 17 H        1.9750     2.2400    -0.0090 H     1 <1>   0.0000 
 18 C        1.9940     4.0500    -1.1800 C.3   1 <1>   0.0000 
 19 H        1.3470     4.4570    -1.9660 H     1 <1>   0.0000 
 20 H        2.8910     3.6440    -1.6590 H     1 <1>   0.0000 
 21 C        2.3330     5.1440    -0.1740 C.3   1 <1>   0.0000 
 22 H        1.8720     6.0890    -0.4840 H     1 <1>   0.0000 
 23 H        3.4140     5.3050    -0.1000 H     1 <1>   0.0000 
 24 C        1.7500     4.6640     1.1470 C.3   1 <1>   0.2700 
 25 H        2.5190     4.1320     1.7220 H     1 <1>   0.0000 
 26 H        1.3780     5.4980     1.7490 H     1 <1>   0.0000 
 27 C       -3.9530     1.6560     0.5460 C.ar  1 <1>  -0.1500 
 28 H       -3.5470     0.9850     1.2920 H     1 <1>   0.1500 
 29 C       -5.2490     1.4270     0.0550 C.ar  1 <1>   0.0820 
 30 O       -6.0260     0.3630     0.4320 O.3   1 <1>  -0.3630 
 31 C       -5.4360    -0.6380     1.2530 C.3   1 <1>   0.2800 
 32 H       -6.1700    -1.4390     1.3800 H     1 <1>   0.0000 
 33 H       -5.2020    -0.2430     2.2470 H     1 <1>   0.0000 
 34 H       -4.5500    -1.0720     0.7770 H     1 <1>   0.0000 
 35 C       -5.7850     2.3180    -0.8860 C.ar  1 <1>   0.0820 
 36 O       -7.0250     2.2460    -1.4690 O.3   1 <1>  -0.3630 
 37 C       -8.0890     1.8320    -0.6170 C.3   1 <1>   0.2800 
 38 H       -8.1950     0.7440    -0.6400 H     1 <1>   0.0000 
 39 H       -7.9730     2.2010     0.4090 H     1 <1>   0.0000 
 40 H       -9.0150     2.2590    -1.0150 H     1 <1>   0.0000 
@<TRIPOS>BOND
  1   1   2  1   
  2   2   3  ar  
  3   2  35  ar  
  4   3   4  1   
  5   3   6  ar  
  6   4   5  3   
  7   6   7  1   
  8   6  27  ar  
  9   7   8  1   
 10   7   9  am  
 11   9  10  2   
 12   9  11  1   
 13  11  12  1   
 14  11  13  1   
 15  11  14  1   
 16  14  15  1   
 17  14  24  1   
 18  15  16  1   
 19  15  17  1   
 20  15  18  1   
 21  18  19  1   
 22  18  20  1   
 23  18  21  1   
 24  21  22  1   
 25  21  23  1   
 26  21  24  1   
 27  24  25  1   
 28  24  26  1   
 29  27  28  1   
 30  27  29  ar  
 31  29  30  1   
 32  29  35  ar  
 33  30  31  1   
 34  31  32  1   
 35  31  33  1   
 36  31  34  1   
 37  35  36  1   
 38  36  37  1   
 39  37  38  1   
 40  37  39  1   
 41  37  40  1   
@<TRIPOS>SUBSTRUCTURE
  1 ****   6 GROUP 4 **** **** 0

# MOE 2022.02 (io_trps.svl 2020.11)

@<TRIPOS>MOLECULE
CEP088
32 34 1 0 0 
SMALL
USER_CHARGES


@<TRIPOS>ATOM
  1 H        0.3950    -0.6320     1.3210 H     1 <1>   0.1500 
  2 C       -0.1910    -1.0310     0.4960 C.ar  1 <1>  -0.1500 
  3 C       -1.5880    -0.9830     0.5490 C.ar  1 <1>  -0.1500 
  4 H       -2.0520    -0.5490     1.4300 H     1 <1>   0.1500 
  5 C       -2.3500    -1.4950    -0.5090 C.ar  1 <1>   0.0860 
  6 C       -3.8430    -1.4730    -0.5030 C.2   1 <1>   0.4230 
  7 O       -4.4560    -2.1140    -1.3550 O.2   1 <1>  -0.5700 
  8 C       -4.5520    -0.6760     0.5660 C.3   1 <1>   0.1220 
  9 H       -4.1110     0.3220     0.6460 H     1 <1>   0.0000 
 10 H       -4.4360    -1.1980     1.5220 H     1 <1>   0.0000 
 11 C       -6.0180    -0.5030     0.2810 C.2   1 <1>   0.3890 
 12 N       -6.9070    -1.0640     1.0500 N.2   1 <1>  -0.6290 
 13 C       -8.2620    -0.9060     0.7050 C.ar  1 <1>   0.1790 
 14 C       -9.2330    -1.5130     1.5030 C.ar  1 <1>  -0.1500 
 15 H       -8.9270    -2.0870     2.3740 H     1 <1>   0.1500 
 16 C      -10.5880    -1.3920     1.1870 C.ar  1 <1>  -0.1500 
 17 H      -11.3340    -1.8720     1.8160 H     1 <1>   0.1500 
 18 C      -10.9840    -0.6620     0.0660 C.ar  1 <1>  -0.1500 
 19 H      -12.0400    -0.5720    -0.1780 H     1 <1>   0.1500 
 20 C      -10.0260    -0.0480    -0.7430 C.ar  1 <1>  -0.1500 
 21 H      -10.3450     0.5190    -1.6130 H     1 <1>   0.1500 
 22 C       -8.6750    -0.1720    -0.4200 C.ar  1 <1>   0.1170 
 23 N       -7.7100     0.4520    -1.2170 N.am  1 <1>  -0.5470 
 24 H       -7.9720     0.9940    -2.0270 H     1 <1>   0.3700 
 25 C       -6.3740     0.3600    -0.9250 C.2   1 <1>   0.6300 
 26 O       -5.5010     0.9510    -1.5450 O.2   1 <1>  -0.5700 
 27 C       -1.6970    -2.0610    -1.6150 C.ar  1 <1>  -0.1500 
 28 H       -2.2730    -2.4670    -2.4450 H     1 <1>   0.1500 
 29 C       -0.3010    -2.1080    -1.6660 C.ar  1 <1>  -0.1500 
 30 H        0.1910    -2.5470    -2.5300 H     1 <1>   0.1500 
 31 C        0.4460    -1.5920    -0.6100 C.ar  1 <1>   0.1770 
 32 CL       2.1640    -1.6480    -0.6690 Cl    1 <1>  -0.1770 
@<TRIPOS>BOND
  1   1   2  1   
  2   2   3  ar  
  3   2  31  ar  
  4   3   4  1   
  5   3   5  ar  
  6   5   6  1   
  7   5  27  ar  
  8   6   7  2   
  9   6   8  1   
 10   8   9  1   
 11   8  10  1   
 12   8  11  1   
 13  11  12  2   
 14  11  25  1   
 15  12  13  1   
 16  13  14  ar  
 17  13  22  ar  
 18  14  15  1   
 19  14  16  ar  
 20  16  17  1   
 21  16  18  ar  
 22  18  19  1   
 23  18  20  ar  
 24  20  21  1   
 25  20  22  ar  
 26  22  23  1   
 27  23  24  1   
 28  23  25  am  
 29  25  26  2   
 30  27  28  1   
 31  27  29  ar  
 32  29  30  1   
 33  29  31  ar  
 34  31  32  1   
@<TRIPOS>SUBSTRUCTURE
  1 ****   8 GROUP 4 **** **** 0

# MOE 2022.02 (io_trps.svl 2020.11)

@<TRIPOS>MOLECULE
CEP089
37 38 1 0 0 
SMALL
USER_CHARGES


@<TRIPOS>ATOM
  1 H        9.4630    -1.0620     3.0990 H     1 <1>   0.4500 
  2 O       10.0400    -1.0070     2.3200 O.3   1 <1>  -0.5320 
  3 C        9.3410    -1.3670     1.2000 C.ar  1 <1>   0.0820 
  4 C        8.0100    -1.7740     1.3550 C.ar  1 <1>  -0.1500 
  5 H        7.5520    -1.7970     2.3400 H     1 <1>   0.1500 
  6 C        7.2610    -2.1500     0.2360 C.ar  1 <1>   0.0860 
  7 C        5.8590    -2.5750     0.4280 C.2   1 <1>   0.3040 
  8 H        5.5210    -2.6260     1.4760 H     1 <1>   0.0600 
  9 N        5.1130    -2.9050    -0.5760 N.2   1 <1>  -0.5120 
 10 N        3.7870    -3.2380    -0.3630 N.am  1 <1>  -0.1070 
 11 C        3.2550    -4.1240    -1.2960 C.2   1 <1>  -0.0290 
 12 C        4.1350    -4.6280    -2.4090 C.3   1 <1>   0.1380 
 13 H        3.5980    -5.3120    -3.0750 H     1 <1>   0.0000 
 14 H        4.9950    -5.1740    -2.0080 H     1 <1>   0.0000 
 15 H        4.4970    -3.7960    -3.0240 H     1 <1>   0.0000 
 16 C        1.9770    -4.5180    -1.1930 C.2   1 <1>  -0.1500 
 17 H        1.5550    -5.2100    -1.9180 H     1 <1>   0.1500 
 18 C        1.1190    -4.0440    -0.1260 C.2   1 <1>  -0.1380 
 19 C       -0.2810    -4.6000    -0.1430 C.3   1 <1>   0.1380 
 20 H       -0.9030    -4.2340     0.6780 H     1 <1>   0.0000 
 21 H       -0.7860    -4.3300    -1.0780 H     1 <1>   0.0000 
 22 H       -0.2570    -5.6930    -0.0680 H     1 <1>   0.0000 
 23 C        1.5990    -3.1670     0.7800 C.2   1 <1>   0.0790 
 24 C        0.8060    -2.6540     1.8440 C.1   1 <1>   0.4920 
 25 N        0.1160    -2.2710     2.6960 N.1   1 <1>  -0.5570 
 26 C        3.0180    -2.6870     0.6850 C.2   1 <1>   0.6160 
 27 O        3.4180    -1.8480     1.4950 O.2   1 <1>  -0.5700 
 28 C        7.8340    -2.1180    -1.0350 C.ar  1 <1>  -0.1500 
 29 H        7.2600    -2.4030    -1.9130 H     1 <1>   0.1500 
 30 C        9.1620    -1.7120    -1.1800 C.ar  1 <1>  -0.1500 
 31 H        9.6070    -1.6890    -2.1730 H     1 <1>   0.1500 
 32 C        9.9310    -1.3330    -0.0700 C.ar  1 <1>   0.0820 
 33 O       11.2040    -0.9680    -0.4120 O.3   1 <1>  -0.3630 
 34 C       12.0870    -0.5540     0.6200 C.3   1 <1>   0.2800 
 35 H       13.0440    -0.3010     0.1510 H     1 <1>   0.0000 
 36 H       11.7230     0.3510     1.1160 H     1 <1>   0.0000 
 37 H       12.2800    -1.3660     1.3280 H     1 <1>   0.0000 
@<TRIPOS>BOND
  1   1   2  1   
  2   2   3  1   
  3   3   4  ar  
  4   3  32  ar  
  5   4   5  1   
  6   4   6  ar  
  7   6   7  1   
  8   6  28  ar  
  9   7   8  1   
 10   7   9  2   
 11   9  10  1   
 12  10  11  1   
 13  10  26  am  
 14  11  12  1   
 15  11  16  2   
 16  12  13  1   
 17  12  14  1   
 18  12  15  1   
 19  16  17  1   
 20  16  18  1   
 21  18  19  1   
 22  18  23  2   
 23  19  20  1   
 24  19  21  1   
 25  19  22  1   
 26  23  24  1   
 27  23  26  1   
 28  24  25  3   
 29  26  27  2   
 30  28  29  1   
 31  28  30  ar  
 32  30  31  1   
 33  30  32  ar  
 34  32  33  1   
 35  33  34  1   
 36  34  35  1   
 37  34  36  1   
 38  34  37  1   
@<TRIPOS>SUBSTRUCTURE
  1 ****   7 GROUP 4 **** **** 0

# MOE 2022.02 (io_trps.svl 2020.11)

@<TRIPOS>MOLECULE
CEP090
38 40 1 0 0 
SMALL
USER_CHARGES


@<TRIPOS>ATOM
  1 H       -0.9000    -3.2930    -2.6670 H     1 <1>   0.1500 
  2 C       -0.8930    -2.4960    -1.9290 C.ar  1 <1>   0.1600 
  3 N       -2.0650    -1.8410    -1.7830 N.ar  1 <1>  -0.6200 
  4 C       -2.0990    -0.8460    -0.8740 C.ar  1 <1>   0.4890 
  5 N       -3.2990    -0.1440    -0.7550 N.2   1 <1>  -0.6290 
  6 C       -4.3870    -0.7660    -0.3940 C.2   1 <1>   0.3750 
  7 C       -5.6610    -0.0110    -0.3470 C.2   1 <1>   0.0290 
  8 C       -5.8610     1.2750     0.0000 C.2   1 <1>  -0.0380 
  9 C       -4.8640     2.2910     0.4420 C.3   1 <1>   0.1380 
 10 H       -3.9170     1.8460     0.7550 H     1 <1>   0.0000 
 11 H       -4.6640     3.0020    -0.3660 H     1 <1>   0.0000 
 12 H       -5.2490     2.8510     1.3020 H     1 <1>   0.0000 
 13 N       -7.1910     1.6000    -0.0600 N.pl3 1 <1>  -0.5200 
 14 H       -7.5620     2.5150     0.1500 H     1 <1>   0.4000 
 15 N       -7.9240     0.5040    -0.4480 N.am  1 <1>  -0.1570 
 16 C       -9.3290     0.5360    -0.5930 C.ar  1 <1>   0.1170 
 17 C      -10.0660     1.7080    -0.3520 C.ar  1 <1>  -0.1500 
 18 H       -9.5850     2.6310    -0.0500 H     1 <1>   0.1500 
 19 C      -11.4580     1.7320    -0.4960 C.ar  1 <1>  -0.1500 
 20 H      -12.0070     2.6510    -0.3040 H     1 <1>   0.1500 
 21 C      -12.1420     0.5850    -0.8820 C.ar  1 <1>  -0.1500 
 22 H      -13.2220     0.6020    -0.9940 H     1 <1>   0.1500 
 23 C      -11.4320    -0.5860    -1.1260 C.ar  1 <1>  -0.1500 
 24 H      -11.9570    -1.4880    -1.4290 H     1 <1>   0.1500 
 25 C      -10.0400    -0.6080    -0.9830 C.ar  1 <1>  -0.1500 
 26 H       -9.5320    -1.5470    -1.1860 H     1 <1>   0.1500 
 27 C       -7.0260    -0.5560    -0.6460 C.2   1 <1>   0.6160 
 28 O       -7.2350    -1.7090    -0.9890 O.2   1 <1>  -0.5700 
 29 C       -4.4480    -2.2330    -0.0150 C.3   1 <1>   0.0610 
 30 H       -5.3210    -2.4400     0.6100 H     1 <1>   0.0000 
 31 H       -4.5050    -2.8440    -0.9200 H     1 <1>   0.0000 
 32 H       -3.5670    -2.5200     0.5670 H     1 <1>   0.0000 
 33 C       -0.9970    -0.4680    -0.1200 C.ar  1 <1>  -0.1500 
 34 H       -1.0720     0.3550     0.5810 H     1 <1>   0.1500 
 35 C        0.1980    -1.1630    -0.2870 C.ar  1 <1>  -0.1500 
 36 H        1.0760    -0.8910     0.2920 H     1 <1>   0.1500 
 37 C        0.2540    -2.2000    -1.2090 C.ar  1 <1>  -0.1500 
 38 H        1.1680    -2.7600    -1.3690 H     1 <1>   0.1500 
@<TRIPOS>BOND
  1   1   2  1   
  2   2   3  ar  
  3   2  37  ar  
  4   3   4  ar  
  5   4   5  1   
  6   4  33  ar  
  7   5   6  2   
  8   6   7  1   
  9   6  29  1   
 10   7   8  2   
 11   7  27  1   
 12   8   9  1   
 13   8  13  1   
 14   9  10  1   
 15   9  11  1   
 16   9  12  1   
 17  13  14  1   
 18  13  15  1   
 19  15  16  1   
 20  15  27  am  
 21  16  17  ar  
 22  16  25  ar  
 23  17  18  1   
 24  17  19  ar  
 25  19  20  1   
 26  19  21  ar  
 27  21  22  1   
 28  21  23  ar  
 29  23  24  1   
 30  23  25  ar  
 31  25  26  1   
 32  27  28  2   
 33  29  30  1   
 34  29  31  1   
 35  29  32  1   
 36  33  34  1   
 37  33  35  ar  
 38  35  36  1   
 39  35  37  ar  
 40  37  38  1   
@<TRIPOS>SUBSTRUCTURE
  1 ****   7 GROUP 4 **** **** 0

# MOE 2022.02 (io_trps.svl 2020.11)

@<TRIPOS>MOLECULE
CEP091
43 45 1 0 0 
SMALL
USER_CHARGES


@<TRIPOS>ATOM
  1 H       -0.0680     4.8090    -0.9870 H     1 <1>   0.1500 
  2 C       -0.4400     3.9720    -0.4080 C.ar  1 <1>  -0.1500 
  3 C       -1.8260     3.8890    -0.1900 C.ar  1 <1>  -0.1500 
  4 H       -2.4500     4.6560    -0.6390 H     1 <1>   0.1500 
  5 C       -2.4070     2.8400     0.5380 C.ar  1 <1>   0.1000 
  6 N       -3.7670     2.7620     0.7490 N.pl3 1 <1>  -0.8380 
  7 C       -4.4670     1.4750     0.8710 C.3   1 <1>   0.3690 
  8 H       -4.7120     1.3000     1.9250 H     1 <1>   0.0000 
  9 H       -3.8480     0.6370     0.5300 H     1 <1>   0.0000 
 10 C       -5.7600     1.4660     0.0180 C.3   1 <1>   0.2700 
 11 H       -6.2840     0.5290     0.2380 H     1 <1>   0.0000 
 12 H       -5.4780     1.4420    -1.0430 H     1 <1>   0.0000 
 13 N       -6.6510     2.6220     0.2770 N.3   1 <1>  -0.8100 
 14 C       -7.8370     2.6100    -0.5930 C.3   1 <1>   0.4080 
 15 H       -8.3830     3.5550    -0.4650 H     1 <1>   0.0000 
 16 H       -7.5490     2.5810    -1.6530 H     1 <1>   0.0000 
 17 C       -8.8040     1.4960    -0.2660 C.2   1 <1>  -0.1380 
 18 C       -8.8890     0.3610    -1.1730 C.2   1 <1>  -0.1500 
 19 H       -8.2510     0.3340    -2.0500 H     1 <1>   0.1500 
 20 C       -9.7400    -0.6400    -0.9200 C.2   1 <1>  -0.0410 
 21 H       -9.8350    -1.5080    -1.5650 H     1 <1>   0.1500 
 22 N      -10.5420    -0.6020     0.1900 N.am  1 <1>  -0.5390 
 23 H      -11.1850    -1.3600     0.3840 H     1 <1>   0.3700 
 24 C      -10.5430     0.4270     1.1000 C.2   1 <1>   0.6160 
 25 O      -11.2730     0.4430     2.0850 O.2   1 <1>  -0.5700 
 26 C       -9.6010     1.5390     0.8180 C.2   1 <1>  -0.1360 
 27 H       -9.5850     2.3530     1.5310 H     1 <1>   0.1500 
 28 C       -5.8780     3.8690     0.0660 C.3   1 <1>   0.2700 
 29 H       -6.5090     4.7340     0.3070 H     1 <1>   0.0000 
 30 H       -5.5840     3.9600    -0.9880 H     1 <1>   0.0000 
 31 C       -4.6130     3.9450     0.9470 C.3   1 <1>   0.3690 
 32 H       -4.9080     3.9850     2.0040 H     1 <1>   0.0000 
 33 H       -4.0930     4.8860     0.7420 H     1 <1>   0.0000 
 34 C       -1.5270     1.8710     1.0410 C.ar  1 <1>  -0.1500 
 35 H       -1.9030     1.0470     1.6400 H     1 <1>   0.1500 
 36 C       -0.1440     1.9470     0.8310 C.ar  1 <1>  -0.1500 
 37 H        0.5030     1.1790     1.2470 H     1 <1>   0.1500 
 38 C        0.4090     2.9980     0.1060 C.ar  1 <1>   0.0820 
 39 O        1.7680     2.9570    -0.0270 O.3   1 <1>  -0.3630 
 40 C        2.3740     4.0190    -0.7540 C.3   1 <1>   0.2800 
 41 H        3.4540     3.8430    -0.7650 H     1 <1>   0.0000 
 42 H        2.0280     4.0330    -1.7930 H     1 <1>   0.0000 
 43 H        2.1980     4.9830    -0.2650 H     1 <1>   0.0000 
@<TRIPOS>BOND
  1   1   2  1   
  2   2   3  ar  
  3   2  38  ar  
  4   3   4  1   
  5   3   5  ar  
  6   5   6  1   
  7   5  34  ar  
  8   6   7  1   
  9   6  31  1   
 10   7   8  1   
 11   7   9  1   
 12   7  10  1   
 13  10  11  1   
 14  10  12  1   
 15  10  13  1   
 16  13  14  1   
 17  13  28  1   
 18  14  15  1   
 19  14  16  1   
 20  14  17  1   
 21  17  18  1   
 22  17  26  2   
 23  18  19  1   
 24  18  20  2   
 25  20  21  1   
 26  20  22  1   
 27  22  23  1   
 28  22  24  am  
 29  24  25  2   
 30  24  26  1   
 31  26  27  1   
 32  28  29  1   
 33  28  30  1   
 34  28  31  1   
 35  31  32  1   
 36  31  33  1   
 37  34  35  1   
 38  34  36  ar  
 39  36  37  1   
 40  36  38  ar  
 41  38  39  1   
 42  39  40  1   
 43  40  41  1   
 44  40  42  1   
 45  40  43  1   
@<TRIPOS>SUBSTRUCTURE
  1 ****  10 GROUP 4 **** **** 0

# MOE 2022.02 (io_trps.svl 2020.11)

@<TRIPOS>MOLECULE
CEP092
31 32 1 0 0 
SMALL
USER_CHARGES


@<TRIPOS>ATOM
  1 H       -4.7260     1.9560    -1.3730 H     1 <1>   0.1500 
  2 C       -4.1570     2.8350    -1.0800 C.ar  1 <1>  -0.1500 
  3 C       -4.8110     3.9620    -0.5910 C.ar  1 <1>  -0.1500 
  4 H       -5.8940     3.9640    -0.5000 H     1 <1>   0.1500 
  5 C       -4.0770     5.0910    -0.2180 C.ar  1 <1>  -0.1500 
  6 H       -4.6270     5.9480     0.1600 H     1 <1>   0.1500 
  7 C       -2.6790     5.1030    -0.3300 C.ar  1 <1>   0.1170 
  8 C       -2.0210     3.9620    -0.8250 C.ar  1 <1>   0.1790 
  9 N       -0.6300     3.8890    -0.9810 N.2   1 <1>  -0.6290 
 10 C        0.0830     4.9280    -0.6470 C.2   1 <1>   0.4500 
 11 C        1.5760     4.8230    -0.8630 C.2   1 <1>   0.6300 
 12 O        2.0480     5.3610    -1.8580 O.2   1 <1>  -0.5700 
 13 N        2.3150     4.0960     0.0660 N.am  1 <1>  -0.6600 
 14 C        1.7460     3.4560     1.2440 C.3   1 <1>   0.3000 
 15 H        0.7360     3.8090     1.4600 H     1 <1>   0.0000 
 16 H        1.7150     2.3750     1.0770 H     1 <1>   0.0000 
 17 H        2.3780     3.6740     2.1100 H     1 <1>   0.0000 
 18 C        3.7480     3.9280    -0.1740 C.3   1 <1>   0.5000 
 19 H        4.0990     4.6540    -0.9140 H     1 <1>   0.0000 
 20 H        4.2720     4.1550     0.7620 H     1 <1>   0.0000 
 21 C        4.0910     2.5690    -0.6320 C.1   1 <1>   0.3570 
 22 N        4.3730     1.4910    -0.9600 N.1   1 <1>  -0.5570 
 23 C       -0.5110     6.1880    -0.0590 C.2   1 <1>   0.6300 
 24 O        0.2570     7.0690     0.3120 O.2   1 <1>  -0.5700 
 25 N       -1.8970     6.2290     0.0530 N.am  1 <1>  -0.4770 
 26 C       -2.5280     7.4290     0.5730 C.3   1 <1>   0.3000 
 27 H       -1.7910     8.2030     0.8060 H     1 <1>   0.0000 
 28 H       -3.2160     7.8330    -0.1750 H     1 <1>   0.0000 
 29 H       -3.0670     7.1860     1.4950 H     1 <1>   0.0000 
 30 C       -2.7690     2.8390    -1.1960 C.ar  1 <1>  -0.1500 
 31 H       -2.2570     1.9610    -1.5830 H     1 <1>   0.1500 
@<TRIPOS>BOND
  1   1   2  1   
  2   2   3  ar  
  3   2  30  ar  
  4   3   4  1   
  5   3   5  ar  
  6   5   6  1   
  7   5   7  ar  
  8   7   8  ar  
  9   7  25  1   
 10   8   9  1   
 11   8  30  ar  
 12   9  10  2   
 13  10  11  1   
 14  10  23  1   
 15  11  12  2   
 16  11  13  am  
 17  13  14  1   
 18  13  18  1   
 19  14  15  1   
 20  14  16  1   
 21  14  17  1   
 22  18  19  1   
 23  18  20  1   
 24  18  21  1   
 25  21  22  3   
 26  23  24  2   
 27  23  25  am  
 28  25  26  1   
 29  26  27  1   
 30  26  28  1   
 31  26  29  1   
 32  30  31  1   
@<TRIPOS>SUBSTRUCTURE
  1 ****  10 GROUP 4 **** **** 0

# MOE 2022.02 (io_trps.svl 2020.11)

@<TRIPOS>MOLECULE
CEP093
37 38 1 0 0 
SMALL
USER_CHARGES


@<TRIPOS>ATOM
  1 H       -1.3960     2.7630     3.2390 H     1 <1>   0.1500 
  2 C       -0.6670     2.9190     2.4480 C.ar  1 <1>  -0.1500 
  3 C        0.3910     2.0370     2.2930 C.ar  1 <1>  -0.1500 
  4 H        0.5000     1.1900     2.9660 H     1 <1>   0.1500 
  5 C        1.3240     2.2450     1.2770 C.ar  1 <1>  -0.1500 
  6 H        2.1470     1.5370     1.2230 H     1 <1>   0.1500 
  7 C        1.2150     3.3350     0.3940 C.ar  1 <1>   0.1170 
  8 C        0.1500     4.2430     0.5650 C.ar  1 <1>   0.1170 
  9 C       -0.7840     4.0140     1.5930 C.ar  1 <1>  -0.1500 
 10 H       -1.6240     4.6820     1.7620 H     1 <1>   0.1500 
 11 N        0.0250     5.3730    -0.2910 N.am  1 <1>  -0.4770 
 12 C       -1.0930     6.2920    -0.1390 C.3   1 <1>   0.3000 
 13 H       -1.0670     7.0970    -0.8780 H     1 <1>   0.0000 
 14 H       -1.0540     6.7510     0.8540 H     1 <1>   0.0000 
 15 H       -2.0340     5.7480    -0.2730 H     1 <1>   0.0000 
 16 C        0.9550     5.6420    -1.2910 C.2   1 <1>   0.6300 
 17 O        0.8870     6.6020    -2.0530 O.2   1 <1>  -0.5700 
 18 C        2.1340     4.6800    -1.4440 C.2   1 <1>   0.6300 
 19 O        3.0250     4.9460    -2.2500 O.2   1 <1>  -0.5700 
 20 N        2.1640     3.5420    -0.6440 N.am  1 <1>  -0.4770 
 21 C        3.2370     2.5830    -0.9070 C.3   1 <1>   0.3610 
 22 H        2.9110     1.5530    -0.7360 H     1 <1>   0.0000 
 23 H        3.5270     2.6270    -1.9650 H     1 <1>   0.0000 
 24 C        4.4730     2.9070    -0.0690 C.2   1 <1>   0.5690 
 25 O        4.8170     2.1990     0.8740 O.2   1 <1>  -0.5700 
 26 N        5.1380     4.0470    -0.4700 N.am  1 <1>  -0.7300 
 27 H        4.7570     4.5580    -1.2670 H     1 <1>   0.3700 
 28 C        6.3340     4.5810     0.1640 C.3   1 <1>   0.3000 
 29 H        6.5840     5.4810    -0.4120 H     1 <1>   0.0000 
 30 C        6.0770     5.0120     1.6060 C.3   1 <1>   0.0000 
 31 H        6.9530     5.5220     2.0190 H     1 <1>   0.0000 
 32 H        5.8510     4.1590     2.2540 H     1 <1>   0.0000 
 33 H        5.2270     5.7010     1.6580 H     1 <1>   0.0000 
 34 C        7.5190     3.6240     0.0640 C.3   1 <1>   0.0000 
 35 H        7.6920     3.3290    -0.9770 H     1 <1>   0.0000 
 36 H        7.3580     2.7110     0.6450 H     1 <1>   0.0000 
 37 H        8.4320     4.1000     0.4360 H     1 <1>   0.0000 
@<TRIPOS>BOND
  1   1   2  1   
  2   2   3  ar  
  3   2   9  ar  
  4   3   4  1   
  5   3   5  ar  
  6   5   6  1   
  7   5   7  ar  
  8   7   8  ar  
  9   7  20  1   
 10   8   9  ar  
 11   8  11  1   
 12   9  10  1   
 13  11  12  1   
 14  11  16  am  
 15  12  13  1   
 16  12  14  1   
 17  12  15  1   
 18  16  17  2   
 19  16  18  1   
 20  18  19  2   
 21  18  20  am  
 22  20  21  1   
 23  21  22  1   
 24  21  23  1   
 25  21  24  1   
 26  24  25  2   
 27  24  26  am  
 28  26  27  1   
 29  26  28  1   
 30  28  29  1   
 31  28  30  1   
 32  28  34  1   
 33  30  31  1   
 34  30  32  1   
 35  30  33  1   
 36  34  35  1   
 37  34  36  1   
 38  34  37  1   
@<TRIPOS>SUBSTRUCTURE
  1 ****  20 GROUP 4 **** **** 0

# MOE 2022.02 (io_trps.svl 2020.11)

@<TRIPOS>MOLECULE
CEP094
34 35 1 0 0 
SMALL
USER_CHARGES


@<TRIPOS>ATOM
  1 H        6.0370    -5.9770     1.2590 H     1 <1>   0.1500 
  2 C        5.1740    -5.3470     1.0850 C.2   1 <1>  -0.3000 
  3 H        4.2230    -5.7680     1.4020 H     1 <1>   0.1500 
  4 C        5.2500    -4.1310     0.5180 C.2   1 <1>   0.0770 
  5 O        6.4160    -3.5320     0.0850 O.3   1 <1>  -0.3570 
  6 C        7.6440    -4.2400     0.2360 C.3   1 <1>   0.2800 
  7 H        7.8340    -4.4480     1.2960 H     1 <1>   0.0000 
  8 H        7.6130    -5.1780    -0.3300 H     1 <1>   0.0000 
  9 C        8.7580    -3.3650    -0.3070 C.3   1 <1>   0.0000 
 10 H        9.7270    -3.8650    -0.2180 H     1 <1>   0.0000 
 11 H        8.5800    -3.1230    -1.3610 H     1 <1>   0.0000 
 12 H        8.8000    -2.4140     0.2350 H     1 <1>   0.0000 
 13 C        4.0780    -3.3130     0.2800 C.2   1 <1>   0.0140 
 14 C        3.9400    -1.9710     0.2570 C.2   1 <1>  -0.0380 
 15 C        4.9610    -0.9210     0.5440 C.3   1 <1>   0.1380 
 16 H        5.2950    -0.4540    -0.3870 H     1 <1>   0.0000 
 17 H        5.8360    -1.3140     1.0690 H     1 <1>   0.0000 
 18 H        4.5340    -0.1410     1.1840 H     1 <1>   0.0000 
 19 N        2.6560    -1.6000    -0.0450 N.pl3 1 <1>  -0.5200 
 20 H        2.3460    -0.6410    -0.1060 H     1 <1>   0.4000 
 21 N        1.8800    -2.7130    -0.2470 N.am  1 <1>  -0.1570 
 22 C        0.5080    -2.6400    -0.5750 C.ar  1 <1>   0.1170 
 23 C       -0.2500    -3.8060    -0.7740 C.ar  1 <1>  -0.1500 
 24 H        0.1960    -4.7930    -0.6830 H     1 <1>   0.1500 
 25 C       -1.6100    -3.7440    -1.0990 C.ar  1 <1>  -0.1500 
 26 H       -2.1820    -4.6530    -1.2500 H     1 <1>   0.1500 
 27 C       -2.2270    -2.5100    -1.2290 C.ar  1 <1>   0.1900 
 28 F       -3.5280    -2.4470    -1.5400 F     1 <1>  -0.1900 
 29 C       -1.5090    -1.3380    -1.0400 C.ar  1 <1>  -0.1500 
 30 H       -2.0090    -0.3810    -1.1460 H     1 <1>   0.1500 
 31 C       -0.1490    -1.4030    -0.7150 C.ar  1 <1>  -0.1500 
 32 H        0.3720    -0.4630    -0.5760 H     1 <1>   0.1500 
 33 C        2.7010    -3.8380    -0.0670 C.2   1 <1>   0.6160 
 34 O        2.4180    -5.0240    -0.1610 O.2   1 <1>  -0.5700 
@<TRIPOS>BOND
  1   1   2  1   
  2   2   3  1   
  3   2   4  2   
  4   4   5  1   
  5   4  13  1   
  6   5   6  1   
  7   6   7  1   
  8   6   8  1   
  9   6   9  1   
 10   9  10  1   
 11   9  11  1   
 12   9  12  1   
 13  13  14  2   
 14  13  33  1   
 15  14  15  1   
 16  14  19  1   
 17  15  16  1   
 18  15  17  1   
 19  15  18  1   
 20  19  20  1   
 21  19  21  1   
 22  21  22  1   
 23  21  33  am  
 24  22  23  ar  
 25  22  31  ar  
 26  23  24  1   
 27  23  25  ar  
 28  25  26  1   
 29  25  27  ar  
 30  27  28  1   
 31  27  29  ar  
 32  29  30  1   
 33  29  31  ar  
 34  31  32  1   
 35  33  34  2   
@<TRIPOS>SUBSTRUCTURE
  1 ****  21 GROUP 4 **** **** 0

# MOE 2022.02 (io_trps.svl 2020.11)

@<TRIPOS>MOLECULE
CEP095
29 32 1 0 0 
SMALL
USER_CHARGES


@<TRIPOS>ATOM
  1 H        2.1190     1.0530    -0.1240 H     1 <1>   0.1500 
  2 C        1.2180     1.6610    -0.1040 C.ar  1 <1>  -0.1500 
  3 C        1.2840     3.0230    -0.3640 C.ar  1 <1>  -0.1500 
  4 H        2.2410     3.4850    -0.5970 H     1 <1>   0.1500 
  5 C        0.1220     3.8060    -0.3400 C.ar  1 <1>  -0.1500 
  6 H        0.2550     4.8490    -0.6110 H     1 <1>   0.1500 
  7 C       -1.1330     3.2610    -0.0200 C.ar  1 <1>   0.0280 
  8 C       -1.1820     1.8630     0.1580 C.ar  1 <1>   0.0860 
  9 C       -0.0170     1.0770     0.1410 C.ar  1 <1>  -0.1500 
 10 H       -0.0770     0.0010     0.2960 H     1 <1>   0.1500 
 11 C       -2.4770     1.1550     0.2860 C.2   1 <1>   0.3980 
 12 O       -2.5130    -0.0440     0.5410 O.2   1 <1>  -0.5700 
 13 C       -3.7330     1.9000     0.0720 C.ar  1 <1>   0.0860 
 14 C       -4.9410     1.1910    -0.0070 C.ar  1 <1>  -0.1500 
 15 H       -4.9450     0.1040     0.0570 H     1 <1>   0.1500 
 16 C       -6.1440     1.8750    -0.1630 C.ar  1 <1>  -0.1500 
 17 H       -7.0790     1.3240    -0.2260 H     1 <1>   0.1500 
 18 C       -6.1430     3.2670    -0.2080 C.ar  1 <1>  -0.1500 
 19 H       -7.0890     3.7960    -0.2930 H     1 <1>   0.1500 
 20 C       -4.9350     3.9610    -0.1110 C.ar  1 <1>   0.1170 
 21 C       -3.7100     3.2950    -0.0120 C.ar  1 <1>   0.0280 
 22 C       -2.4200     4.0430     0.0500 C.2   1 <1>  -0.0570 
 23 C       -2.5160     5.3900     0.2270 C.2   1 <1>   0.0790 
 24 C       -1.4220     6.2540     0.5210 C.1   1 <1>   0.4920 
 25 N       -0.5140     6.9360     0.7680 N.1   1 <1>  -0.5570 
 26 C       -3.8340     6.1030     0.1360 C.2   1 <1>   0.6160 
 27 O       -3.9250     7.3240     0.2150 O.2   1 <1>  -0.5700 
 28 N       -4.9530     5.3480    -0.0530 N.am  1 <1>  -0.5470 
 29 H       -5.8230     5.8600    -0.1330 H     1 <1>   0.3700 
@<TRIPOS>BOND
  1   1   2  1   
  2   2   3  ar  
  3   2   9  ar  
  4   3   4  1   
  5   3   5  ar  
  6   5   6  1   
  7   5   7  ar  
  8   7   8  ar  
  9   7  22  1   
 10   8   9  ar  
 11   8  11  1   
 12   9  10  1   
 13  11  12  2   
 14  11  13  1   
 15  13  14  ar  
 16  13  21  ar  
 17  14  15  1   
 18  14  16  ar  
 19  16  17  1   
 20  16  18  ar  
 21  18  19  1   
 22  18  20  ar  
 23  20  21  ar  
 24  20  28  1   
 25  21  22  1   
 26  22  23  2   
 27  23  24  1   
 28  23  26  1   
 29  24  25  3   
 30  26  27  2   
 31  26  28  am  
 32  28  29  1   
@<TRIPOS>SUBSTRUCTURE
  1 ****  22 GROUP 4 **** **** 0

# MOE 2022.02 (io_trps.svl 2020.11)

@<TRIPOS>MOLECULE
CEP096
33 35 1 0 0 
SMALL
USER_CHARGES


@<TRIPOS>ATOM
  1 H        6.7960    -4.3250    -1.0620 H     1 <1>   0.1500 
  2 C        7.3140    -3.3970    -0.8330 C.ar  1 <1>  -0.1500 
  3 C        8.6760    -3.4360    -0.5140 C.ar  1 <1>  -0.1500 
  4 H        9.1870    -4.3950    -0.5000 H     1 <1>   0.1500 
  5 C        9.3760    -2.2640    -0.2230 C.ar  1 <1>   0.1000 
  6 N       10.7210    -2.3040     0.0890 N.pl3 1 <1>  -0.9000 
  7 H       11.2190    -3.1820     0.1140 H     1 <1>   0.4000 
  8 H       11.2280    -1.4550     0.2960 H     1 <1>   0.4000 
  9 C        8.6900    -1.0490    -0.2600 C.ar  1 <1>  -0.1500 
 10 H        9.2120    -0.1200    -0.0470 H     1 <1>   0.1500 
 11 C        7.3280    -1.0040    -0.5780 C.ar  1 <1>  -0.1500 
 12 H        6.8260    -0.0400    -0.6150 H     1 <1>   0.1500 
 13 C        6.6310    -2.1800    -0.8570 C.ar  1 <1>   0.1020 
 14 S        4.9010    -2.1460    -1.2800 S.3   1 <1>  -0.3320 
 15 C        4.2190    -1.5840     0.3140 C.3   1 <1>   0.2910 
 16 H        4.6490    -0.6240     0.6130 H     1 <1>   0.0000 
 17 H        4.4570    -2.3210     1.0880 H     1 <1>   0.0000 
 18 C        2.7210    -1.4690     0.1940 C.2   1 <1>   0.3890 
 19 N        1.9540    -2.4840     0.4780 N.2   1 <1>  -0.6290 
 20 C        0.5660    -2.3300     0.3200 C.ar  1 <1>   0.1790 
 21 C       -0.2670    -3.4120     0.6110 C.ar  1 <1>  -0.1500 
 22 H        0.1690    -4.3470     0.9520 H     1 <1>   0.1500 
 23 C       -1.6520    -3.3010     0.4630 C.ar  1 <1>  -0.1500 
 24 H       -2.2900    -4.1510     0.6920 H     1 <1>   0.1500 
 25 C       -2.2140    -2.1030     0.0210 C.ar  1 <1>  -0.1500 
 26 H       -3.2930    -2.0210    -0.0930 H     1 <1>   0.1500 
 27 C       -1.3960    -1.0120    -0.2740 C.ar  1 <1>  -0.1500 
 28 H       -1.8450    -0.0850    -0.6180 H     1 <1>   0.1500 
 29 C       -0.0140    -1.1320    -0.1240 C.ar  1 <1>   0.1170 
 30 N        0.8140    -0.0440    -0.4140 N.am  1 <1>  -0.5470 
 31 H        0.4300     0.8350    -0.7330 H     1 <1>   0.3700 
 32 C        2.1770    -0.1210    -0.2760 C.2   1 <1>   0.6300 
 33 O        2.9240     0.8210    -0.4900 O.2   1 <1>  -0.5700 
@<TRIPOS>BOND
  1   1   2  1   
  2   2   3  ar  
  3   2  13  ar  
  4   3   4  1   
  5   3   5  ar  
  6   5   6  1   
  7   5   9  ar  
  8   6   7  1   
  9   6   8  1   
 10   9  10  1   
 11   9  11  ar  
 12  11  12  1   
 13  11  13  ar  
 14  13  14  1   
 15  14  15  1   
 16  15  16  1   
 17  15  17  1   
 18  15  18  1   
 19  18  19  2   
 20  18  32  1   
 21  19  20  1   
 22  20  21  ar  
 23  20  29  ar  
 24  21  22  1   
 25  21  23  ar  
 26  23  24  1   
 27  23  25  ar  
 28  25  26  1   
 29  25  27  ar  
 30  27  28  1   
 31  27  29  ar  
 32  29  30  1   
 33  30  31  1   
 34  30  32  am  
 35  32  33  2   
@<TRIPOS>SUBSTRUCTURE
  1 ****  15 GROUP 4 **** **** 0

# MOE 2022.02 (io_trps.svl 2020.11)

@<TRIPOS>MOLECULE
CEP097
40 41 1 0 0 
SMALL
USER_CHARGES


@<TRIPOS>ATOM
  1 H        3.0770    -2.1070    -2.4450 H     1 <1>   0.4500 
  2 O        3.6230    -1.6120    -1.8120 O.3   1 <1>  -0.5270 
  3 C        2.8050    -0.7410    -1.1170 C.2   1 <1>   0.0480 
  4 C        3.2690     0.4560    -0.7360 C.2   1 <1>  -0.1240 
  5 C        4.6790     0.9240    -0.9660 C.3   1 <1>   0.1990 
  6 H        5.2360     0.2490    -1.6250 H     1 <1>   0.0000 
  7 H        4.6660     1.9110    -1.4440 H     1 <1>   0.0000 
  8 C        5.4380     1.0110     0.3450 C.2   1 <1>   0.6590 
  9 O        5.1310     0.4640     1.3960 O.2   1 <1>  -0.5700 
 10 O        6.5680     1.7590     0.1600 O.3   1 <1>  -0.4300 
 11 C        7.3650     1.9170     1.3400 C.3   1 <1>   0.2800 
 12 H        6.7840     2.4370     2.1100 H     1 <1>   0.0000 
 13 H        7.6790     0.9360     1.7120 H     1 <1>   0.0000 
 14 C        8.5860     2.7390     0.9760 C.3   1 <1>   0.0000 
 15 H        9.2270     2.8930     1.8490 H     1 <1>   0.0000 
 16 H        8.2900     3.7160     0.5790 H     1 <1>   0.0000 
 17 H        9.1680     2.2400     0.1940 H     1 <1>   0.0000 
 18 C        2.3670     1.4400    -0.0750 C.2   1 <1>   0.6160 
 19 O        2.8110     2.5540     0.2070 O.2   1 <1>  -0.5700 
 20 N        1.0480     1.0630     0.1550 N.am  1 <1>  -0.4770 
 21 C        0.1820     2.0440     0.8120 C.3   1 <1>   0.3000 
 22 H        0.7990     2.7200     1.4170 H     1 <1>   0.0000 
 23 H       -0.4750     1.5470     1.5330 H     1 <1>   0.0000 
 24 C       -0.6050     2.8800    -0.2000 C.3   1 <1>   0.0000 
 25 H       -1.2210     2.2350    -0.8360 H     1 <1>   0.0000 
 26 H        0.0890     3.4050    -0.8680 H     1 <1>   0.0000 
 27 C       -1.4980     3.8960     0.4930 C.3   1 <1>   0.0000 
 28 H       -2.0500     4.4830    -0.2480 H     1 <1>   0.0000 
 29 H       -2.2240     3.3990     1.1440 H     1 <1>   0.0000 
 30 H       -0.9060     4.5870     1.1010 H     1 <1>   0.0000 
 31 C        0.5470    -0.2200    -0.2310 C.ar  1 <1>   0.1170 
 32 C       -0.7900    -0.5940    -0.0080 C.ar  1 <1>  -0.1500 
 33 H       -1.5110     0.0860     0.4340 H     1 <1>   0.1500 
 34 C       -1.2520    -1.8680    -0.3440 C.ar  1 <1>  -0.1500 
 35 H       -2.2880    -2.1380    -0.1570 H     1 <1>   0.1500 
 36 C       -0.3810    -2.7950    -0.8980 C.ar  1 <1>  -0.1500 
 37 H       -0.7300    -3.7970    -1.1370 H     1 <1>   0.1500 
 38 C        0.9460    -2.4390    -1.1380 C.ar  1 <1>  -0.1500 
 39 H        1.6030    -3.2040    -1.5410 H     1 <1>   0.1500 
 40 C        1.4170    -1.1460    -0.8380 C.ar  1 <1>   0.0280 
@<TRIPOS>BOND
  1   1   2  1   
  2   2   3  1   
  3   3   4  2   
  4   3  40  1   
  5   4   5  1   
  6   4  18  1   
  7   5   6  1   
  8   5   7  1   
  9   5   8  1   
 10   8   9  2   
 11   8  10  1   
 12  10  11  1   
 13  11  12  1   
 14  11  13  1   
 15  11  14  1   
 16  14  15  1   
 17  14  16  1   
 18  14  17  1   
 19  18  19  2   
 20  18  20  am  
 21  20  21  1   
 22  20  31  1   
 23  21  22  1   
 24  21  23  1   
 25  21  24  1   
 26  24  25  1   
 27  24  26  1   
 28  24  27  1   
 29  27  28  1   
 30  27  29  1   
 31  27  30  1   
 32  31  32  ar  
 33  31  40  ar  
 34  32  33  1   
 35  32  34  ar  
 36  34  35  1   
 37  34  36  ar  
 38  36  37  1   
 39  36  38  ar  
 40  38  39  1   
 41  38  40  ar  
@<TRIPOS>SUBSTRUCTURE
  1 ****  18 GROUP 4 **** **** 0

# MOE 2022.02 (io_trps.svl 2020.11)

@<TRIPOS>MOLECULE
CEP098
40 40 1 0 0 
SMALL
USER_CHARGES


@<TRIPOS>ATOM
  1 H        1.6920     4.9240    -0.0350 H     1 <1>   0.1500 
  2 C        0.8630     4.2220    -0.0300 C.ar  1 <1>  -0.1500 
  3 C       -0.4330     4.7410    -0.0170 C.ar  1 <1>  -0.1500 
  4 H       -0.5510     5.8240    -0.0110 H     1 <1>   0.1500 
  5 C       -1.5440     3.8800    -0.0100 C.ar  1 <1>   0.1330 
  6 N       -2.8810     4.5010     0.0040 N.pl3 1 <1>   0.9070 
  7 O       -3.8730     3.7540     0.0430 O.2   1 <1>  -0.5200 
  8 O       -2.9490     5.7370    -0.0250 O.2   1 <1>  -0.5200 
  9 C       -1.3680     2.4770    -0.0180 C.ar  1 <1>   0.1170 
 10 N       -2.4820     1.5930    -0.0110 N.am  1 <1>  -0.5470 
 11 H       -3.3990     2.0420     0.0070 H     1 <1>   0.3700 
 12 C       -2.4920     0.2070    -0.0250 C.2   1 <1>   0.5690 
 13 O       -1.5110    -0.5260    -0.0490 O.2   1 <1>  -0.5700 
 14 C       -3.9150    -0.3350    -0.0070 C.3   1 <1>   0.0610 
 15 H       -4.4450     0.0670    -0.8790 H     1 <1>   0.0000 
 16 H       -4.4130     0.0420     0.8940 H     1 <1>   0.0000 
 17 C       -3.9620    -1.8600    -0.0280 C.3   1 <1>   0.0000 
 18 H       -3.4170    -2.2630     0.8340 H     1 <1>   0.0000 
 19 H       -3.4580    -2.2370    -0.9260 H     1 <1>   0.0000 
 20 C       -5.3920    -2.3740    -0.0020 C.3   1 <1>   0.0000 
 21 H       -5.9110    -2.0440     0.9040 H     1 <1>   0.0000 
 22 H       -5.9540    -2.0150    -0.8700 H     1 <1>   0.0000 
 23 H       -5.4020    -3.4680    -0.0200 H     1 <1>   0.0000 
 24 C       -0.0500     1.9900    -0.0320 C.ar  1 <1>  -0.1500 
 25 H        0.1370     0.9210    -0.0370 H     1 <1>   0.1500 
 26 C        1.0660     2.8450    -0.0380 C.ar  1 <1>   0.1170 
 27 N        2.3380     2.2360    -0.0500 N.am  1 <1>  -0.5470 
 28 H        2.3430     1.2220    -0.0580 H     1 <1>   0.3700 
 29 C        3.5760     2.8590    -0.0530 C.2   1 <1>   0.5690 
 30 O        3.7810     4.0670    -0.0440 O.2   1 <1>  -0.5700 
 31 C        4.7080     1.8420    -0.0700 C.3   1 <1>   0.0610 
 32 H        4.6020     1.2290    -0.9730 H     1 <1>   0.0000 
 33 H        4.5910     1.1850     0.8000 H     1 <1>   0.0000 
 34 C        6.0860     2.4970    -0.0440 C.3   1 <1>   0.0000 
 35 H        6.1890     3.1160     0.8550 H     1 <1>   0.0000 
 36 H        6.1980     3.1660    -0.9050 H     1 <1>   0.0000 
 37 C        7.1970     1.4600    -0.0680 C.3   1 <1>   0.0000 
 38 H        7.1310     0.7940     0.7990 H     1 <1>   0.0000 
 39 H        7.1440     0.8490    -0.9750 H     1 <1>   0.0000 
 40 H        8.1750     1.9510    -0.0460 H     1 <1>   0.0000 
@<TRIPOS>BOND
  1   1   2  1   
  2   2   3  ar  
  3   2  26  ar  
  4   3   4  1   
  5   3   5  ar  
  6   5   6  1   
  7   5   9  ar  
  8   6   7  2   
  9   6   8  2   
 10   9  10  1   
 11   9  24  ar  
 12  10  11  1   
 13  10  12  am  
 14  12  13  2   
 15  12  14  1   
 16  14  15  1   
 17  14  16  1   
 18  14  17  1   
 19  17  18  1   
 20  17  19  1   
 21  17  20  1   
 22  20  21  1   
 23  20  22  1   
 24  20  23  1   
 25  24  25  1   
 26  24  26  ar  
 27  26  27  1   
 28  27  28  1   
 29  27  29  am  
 30  29  30  2   
 31  29  31  1   
 32  31  32  1   
 33  31  33  1   
 34  31  34  1   
 35  34  35  1   
 36  34  36  1   
 37  34  37  1   
 38  37  38  1   
 39  37  39  1   
 40  37  40  1   
@<TRIPOS>SUBSTRUCTURE
  1 ****  24 GROUP 4 **** **** 0

# MOE 2022.02 (io_trps.svl 2020.11)

@<TRIPOS>MOLECULE
CEP099
37 39 1 0 0 
SMALL
USER_CHARGES


@<TRIPOS>ATOM
  1 H       -0.7530     0.1520     1.9580 H     1 <1>   0.1500 
  2 C       -0.8200    -0.5640     1.1510 C.2   1 <1>  -0.0100 
  3 O       -1.8190    -1.4780     1.2590 O.3   1 <1>  -0.2800 
  4 C       -1.7410    -2.2860     0.1610 C.2   1 <1>  -0.0400 
  5 C       -2.7460    -3.3700     0.0580 C.3   1 <1>   0.4800 
  6 H       -2.5720    -3.9900    -0.8280 H     1 <1>   0.0000 
  7 H       -2.7140    -4.0160     0.9410 H     1 <1>   0.0000 
  8 N       -4.0590    -2.7830    -0.0220 N.am  1 <1>  -0.7300 
  9 H       -4.1840    -1.8070     0.2230 H     1 <1>   0.3700 
 10 C       -5.1520    -3.5120    -0.4260 C.2   1 <1>   0.6300 
 11 O       -5.1260    -4.6710    -0.8050 O.2   1 <1>  -0.5700 
 12 C       -6.4530    -2.7230    -0.4120 C.2   1 <1>   0.4500 
 13 N       -6.3910    -1.5170    -0.9070 N.2   1 <1>  -0.6290 
 14 C       -7.5660    -0.7550    -0.9610 C.ar  1 <1>   0.1790 
 15 C       -7.4700     0.5220    -1.5240 C.ar  1 <1>  -0.1500 
 16 H       -6.5060     0.8770    -1.8810 H     1 <1>   0.1500 
 17 C       -8.5920     1.3390    -1.6380 C.ar  1 <1>  -0.1500 
 18 H       -8.5030     2.3280    -2.0800 H     1 <1>   0.1500 
 19 C       -9.8250     0.8780    -1.1910 C.ar  1 <1>  -0.1500 
 20 H      -10.7060     1.5090    -1.2830 H     1 <1>   0.1500 
 21 C       -9.9350    -0.3960    -0.6250 C.ar  1 <1>  -0.1500 
 22 H      -10.9200    -0.7100    -0.2980 H     1 <1>   0.1500 
 23 C       -8.8100    -1.2240    -0.4980 C.ar  1 <1>   0.1170 
 24 N       -8.8730    -2.5220     0.0870 N.am  1 <1>  -0.4770 
 25 C      -10.1190    -3.0700     0.6130 C.3   1 <1>   0.3000 
 26 H      -10.6940    -2.2900     1.1230 H     1 <1>   0.0000 
 27 H       -9.8880    -3.8130     1.3860 H     1 <1>   0.0000 
 28 C      -10.9440    -3.7520    -0.4690 C.3   1 <1>   0.0000 
 29 H      -11.8610    -4.1680    -0.0400 H     1 <1>   0.0000 
 30 H      -10.3820    -4.5700    -0.9320 H     1 <1>   0.0000 
 31 H      -11.2250    -3.0520    -1.2620 H     1 <1>   0.0000 
 32 C       -7.7230    -3.3100     0.1700 C.2   1 <1>   0.6300 
 33 O       -7.6770    -4.4140     0.7000 O.2   1 <1>  -0.5700 
 34 C       -0.6950    -1.8830    -0.6440 C.2   1 <1>  -0.1500 
 35 H       -0.4010    -2.3370    -1.5810 H     1 <1>   0.1500 
 36 C       -0.1000    -0.7710    -0.0010 C.2   1 <1>  -0.1500 
 37 H        0.7490    -0.1900    -0.3360 H     1 <1>   0.1500 
@<TRIPOS>BOND
  1   1   2  1   
  2   2   3  1   
  3   2  36  2   
  4   3   4  1   
  5   4   5  1   
  6   4  34  2   
  7   5   6  1   
  8   5   7  1   
  9   5   8  1   
 10   8   9  1   
 11   8  10  am  
 12  10  11  2   
 13  10  12  1   
 14  12  13  2   
 15  12  32  1   
 16  13  14  1   
 17  14  15  ar  
 18  14  23  ar  
 19  15  16  1   
 20  15  17  ar  
 21  17  18  1   
 22  17  19  ar  
 23  19  20  1   
 24  19  21  ar  
 25  21  22  1   
 26  21  23  ar  
 27  23  24  1   
 28  24  25  1   
 29  24  32  am  
 30  25  26  1   
 31  25  27  1   
 32  25  28  1   
 33  28  29  1   
 34  28  30  1   
 35  28  31  1   
 36  32  33  2   
 37  34  35  1   
 38  34  36  1   
 39  36  37  1   
@<TRIPOS>SUBSTRUCTURE
  1 ****  13 GROUP 4 **** **** 0

# MOE 2022.02 (io_trps.svl 2020.11)

@<TRIPOS>MOLECULE
CEP100
37 38 1 0 0 
SMALL
USER_CHARGES


@<TRIPOS>ATOM
  1 H       -9.6420     4.4240    -0.4150 H     1 <1>   0.1500 
  2 C       -8.5770     4.6200    -0.3200 C.ar  1 <1>  -0.1500 
  3 C       -7.7520     3.6970     0.3160 C.ar  1 <1>  -0.1500 
  4 H       -8.1710     2.7800     0.7220 H     1 <1>   0.1500 
  5 C       -6.3800     3.9460     0.4320 C.ar  1 <1>  -0.1500 
  6 H       -5.7710     3.2060     0.9440 H     1 <1>   0.1500 
  7 C       -5.8110     5.1270    -0.0670 C.ar  1 <1>   0.1170 
  8 N       -4.4210     5.3540     0.0520 N.am  1 <1>  -0.1570 
  9 C       -3.4220     4.3770     0.1070 C.2   1 <1>   0.6160 
 10 O       -3.4900     3.1570     0.1560 O.2   1 <1>  -0.5700 
 11 C       -2.1060     5.1010     0.0020 C.2   1 <1>   0.1230 
 12 N       -0.9540     4.3680    -0.0300 N.am  1 <1>  -0.5390 
 13 H       -1.0850     3.3620    -0.0710 H     1 <1>   0.3700 
 14 C        0.3470     4.7590     0.0080 C.2   1 <1>   0.7800 
 15 O        0.7870     5.8890     0.1390 O.2   1 <1>  -0.5700 
 16 O        1.1250     3.6480    -0.1000 O.3   1 <1>  -0.4300 
 17 C        2.5350     3.9060    -0.0610 C.3   1 <1>   0.2800 
 18 H        2.7990     4.3680     0.8970 H     1 <1>   0.0000 
 19 H        2.8120     4.5750    -0.8840 H     1 <1>   0.0000 
 20 C        3.2610     2.5840    -0.2100 C.3   1 <1>   0.0000 
 21 H        2.9890     2.0990    -1.1530 H     1 <1>   0.0000 
 22 H        2.9810     1.8970     0.5950 H     1 <1>   0.0000 
 23 H        4.3450     2.7300    -0.1880 H     1 <1>   0.0000 
 24 C       -2.4110     6.4100    -0.0500 C.2   1 <1>  -0.0380 
 25 C       -1.4910     7.5700    -0.2460 C.3   1 <1>   0.1380 
 26 H       -0.7280     7.3490    -0.9970 H     1 <1>   0.0000 
 27 H       -2.0270     8.4450    -0.6280 H     1 <1>   0.0000 
 28 H       -1.0170     7.8520     0.6980 H     1 <1>   0.0000 
 29 N       -3.7830     6.6060     0.0980 N.pl3 1 <1>  -0.4890 
 30 C       -4.4590     7.8490     0.4020 C.3   1 <1>   0.3690 
 31 H       -3.8160     8.5010     1.0040 H     1 <1>   0.0000 
 32 H       -4.7100     8.3890    -0.5160 H     1 <1>   0.0000 
 33 H       -5.3650     7.6940     0.9960 H     1 <1>   0.0000 
 34 C       -6.6560     6.0300    -0.7280 C.ar  1 <1>  -0.1500 
 35 H       -6.2570     6.9130    -1.2140 H     1 <1>   0.1500 
 36 C       -8.0280     5.7830    -0.8480 C.ar  1 <1>  -0.1500 
 37 H       -8.6630     6.4940    -1.3720 H     1 <1>   0.1500 
@<TRIPOS>BOND
  1   1   2  1   
  2   2   3  ar  
  3   2  36  ar  
  4   3   4  1   
  5   3   5  ar  
  6   5   6  1   
  7   5   7  ar  
  8   7   8  1   
  9   7  34  ar  
 10   8   9  am  
 11   8  29  1   
 12   9  10  2   
 13   9  11  1   
 14  11  12  1   
 15  11  24  2   
 16  12  13  1   
 17  12  14  am  
 18  14  15  2   
 19  14  16  1   
 20  16  17  1   
 21  17  18  1   
 22  17  19  1   
 23  17  20  1   
 24  20  21  1   
 25  20  22  1   
 26  20  23  1   
 27  24  25  1   
 28  24  29  1   
 29  25  26  1   
 30  25  27  1   
 31  25  28  1   
 32  29  30  1   
 33  30  31  1   
 34  30  32  1   
 35  30  33  1   
 36  34  35  1   
 37  34  36  ar  
 38  36  37  1   
@<TRIPOS>SUBSTRUCTURE
  1 ****   9 GROUP 4 **** **** 0

# MOE 2022.02 (io_trps.svl 2020.11)

@<TRIPOS>MOLECULE
CEP101
31 32 1 0 0 
SMALL
USER_CHARGES


@<TRIPOS>ATOM
  1 H        0.6490    -2.7150    -0.3310 H     1 <1>   0.1500 
  2 C        0.5270    -1.6410    -0.1940 C.2   1 <1>  -0.1050 
  3 C       -0.7130    -1.1400    -0.0350 C.2   1 <1>   0.0790 
  4 C       -0.9990     0.2310     0.1860 C.1   1 <1>   0.4920 
  5 N       -1.2990     1.3380     0.3600 N.1   1 <1>  -0.5570 
  6 C       -1.8500    -2.1350    -0.0770 C.2   1 <1>   0.6160 
  7 O       -1.6080    -3.3340    -0.1930 O.2   1 <1>  -0.5700 
  8 N       -3.1180    -1.5900     0.0170 N.am  1 <1>  -0.5470 
  9 H       -3.2270    -0.5810     0.0930 H     1 <1>   0.3700 
 10 C       -4.3620    -2.2760     0.0220 C.ar  1 <1>   0.1170 
 11 C       -4.4830    -3.6660    -0.0550 C.ar  1 <1>  -0.1500 
 12 H       -3.6160    -4.3160    -0.1240 H     1 <1>   0.1500 
 13 C       -5.7430    -4.2750    -0.0410 C.ar  1 <1>  -0.1500 
 14 H       -5.8170    -5.3590    -0.1010 H     1 <1>   0.1500 
 15 C       -6.9000    -3.5040     0.0490 C.ar  1 <1>  -0.1500 
 16 H       -7.8750    -3.9840     0.0590 H     1 <1>   0.1500 
 17 C       -6.8010    -2.1180     0.1270 C.ar  1 <1>  -0.1500 
 18 H       -7.7040    -1.5170     0.1970 H     1 <1>   0.1500 
 19 C       -5.5420    -1.5100     0.1140 C.ar  1 <1>   0.1770 
 20 CL      -5.4750     0.2180     0.2130 Cl    1 <1>  -0.1770 
 21 C        1.7610    -0.9250    -0.1860 C.2   1 <1>   0.0950 
 22 O        2.9550    -1.6190    -0.1380 O.3   1 <1>  -0.2800 
 23 C        3.9850    -0.7360    -0.1420 C.2   1 <1>  -0.0400 
 24 C        5.3420    -1.3140    -0.0930 C.3   1 <1>   0.1800 
 25 H        5.4000    -2.1030     0.6640 H     1 <1>   0.0000 
 26 H        5.6070    -1.7460    -1.0630 H     1 <1>   0.0000 
 27 H        6.0840    -0.5500     0.1560 H     1 <1>   0.0000 
 28 C        3.5010     0.5450    -0.2030 C.2   1 <1>  -0.1500 
 29 H        4.0870     1.4540    -0.2260 H     1 <1>   0.1500 
 30 C        2.0890     0.4270    -0.2370 C.2   1 <1>  -0.1500 
 31 H        1.4060     1.2610    -0.3000 H     1 <1>   0.1500 
@<TRIPOS>BOND
  1   1   2  1   
  2   2   3  2   
  3   2  21  1   
  4   3   4  1   
  5   3   6  1   
  6   4   5  3   
  7   6   7  2   
  8   6   8  am  
  9   8   9  1   
 10   8  10  1   
 11  10  11  ar  
 12  10  19  ar  
 13  11  12  1   
 14  11  13  ar  
 15  13  14  1   
 16  13  15  ar  
 17  15  16  1   
 18  15  17  ar  
 19  17  18  1   
 20  17  19  ar  
 21  19  20  1   
 22  21  22  1   
 23  21  30  2   
 24  22  23  1   
 25  23  24  1   
 26  23  28  2   
 27  24  25  1   
 28  24  26  1   
 29  24  27  1   
 30  28  29  1   
 31  28  30  1   
 32  30  31  1   
@<TRIPOS>SUBSTRUCTURE
  1 ****   3 GROUP 4 **** **** 0

# MOE 2022.02 (io_trps.svl 2020.11)

@<TRIPOS>MOLECULE
CEP102
37 38 1 0 0 
SMALL
USER_CHARGES


@<TRIPOS>ATOM
  1 H        3.8070     2.0260    -0.2370 H     1 <1>   0.4500 
  2 O        3.0540     1.4170    -0.1400 O.3   1 <1>  -0.5130 
  3 C        3.5420     0.1800    -0.0730 C.2   1 <1>  -0.0890 
  4 C        4.8530    -0.2310    -0.1370 C.2   1 <1>  -0.1500 
  5 H        5.7120     0.4220    -0.2340 H     1 <1>   0.1500 
  6 C        4.8890    -1.6470    -0.0620 C.2   1 <1>  -0.0860 
  7 C        6.0750    -2.5040    -0.0990 C.2   1 <1>   0.8060 
  8 O        6.0380    -3.7280    -0.0810 O.2   1 <1>  -0.5700 
  9 O        7.2290    -1.7760    -0.1690 O.3   1 <1>  -0.4300 
 10 C        8.4210    -2.5680    -0.2190 C.3   1 <1>   0.2800 
 11 H        8.4920    -3.1880     0.6810 H     1 <1>   0.0000 
 12 H        8.4030    -3.2080    -1.1090 H     1 <1>   0.0000 
 13 C        9.6100    -1.6300    -0.2890 C.3   1 <1>   0.0000 
 14 H       10.5480    -2.1910    -0.3310 H     1 <1>   0.0000 
 15 H        9.6320    -0.9690     0.5830 H     1 <1>   0.0000 
 16 H        9.5430    -0.9870    -1.1740 H     1 <1>   0.0000 
 17 C        3.5680    -2.0670     0.0950 C.2   1 <1>  -0.3320 
 18 C        3.0870    -3.4480     0.4150 C.3   1 <1>   0.1800 
 19 H        2.1400    -3.4420     0.9630 H     1 <1>   0.0000 
 20 H        2.9730    -4.0370    -0.5000 H     1 <1>   0.0000 
 21 H        3.8000    -3.9650     1.0650 H     1 <1>   0.0000 
 22 N        2.7280    -0.9520    -0.0170 N.pl3 1 <1>   0.3260 
 23 C        1.2970    -0.9550    -0.0750 C.ar  1 <1>  -0.0230 
 24 C        0.5570     0.0860     0.5000 C.ar  1 <1>  -0.1500 
 25 H        1.0450     0.8970     1.0330 H     1 <1>   0.1500 
 26 C       -0.8440     0.0850     0.4380 C.ar  1 <1>  -0.1500 
 27 H       -1.3710     0.9080     0.9080 H     1 <1>   0.1500 
 28 C       -1.5190    -0.9480    -0.2080 C.ar  1 <1>   0.0820 
 29 O       -2.8750    -1.0680    -0.3400 O.3   1 <1>  -0.3630 
 30 C       -3.6670    -0.0270     0.2190 C.3   1 <1>   0.2800 
 31 H       -3.4480     0.9350    -0.2560 H     1 <1>   0.0000 
 32 H       -3.5370     0.0270     1.3050 H     1 <1>   0.0000 
 33 H       -4.7170    -0.2640     0.0210 H     1 <1>   0.0000 
 34 C       -0.7820    -1.9790    -0.7940 C.ar  1 <1>  -0.1500 
 35 H       -1.3010    -2.7800    -1.3150 H     1 <1>   0.1500 
 36 C        0.6150    -1.9850    -0.7340 C.ar  1 <1>  -0.1500 
 37 H        1.1440    -2.7790    -1.2520 H     1 <1>   0.1500 
@<TRIPOS>BOND
  1   1   2  1   
  2   2   3  1   
  3   3   4  2   
  4   3  22  1   
  5   4   5  1   
  6   4   6  1   
  7   6   7  1   
  8   6  17  2   
  9   7   8  2   
 10   7   9  1   
 11   9  10  1   
 12  10  11  1   
 13  10  12  1   
 14  10  13  1   
 15  13  14  1   
 16  13  15  1   
 17  13  16  1   
 18  17  18  1   
 19  17  22  1   
 20  18  19  1   
 21  18  20  1   
 22  18  21  1   
 23  22  23  1   
 24  23  24  ar  
 25  23  36  ar  
 26  24  25  1   
 27  24  26  ar  
 28  26  27  1   
 29  26  28  ar  
 30  28  29  1   
 31  28  34  ar  
 32  29  30  1   
 33  30  31  1   
 34  30  32  1   
 35  30  33  1   
 36  34  35  1   
 37  34  36  ar  
 38  36  37  1   
@<TRIPOS>SUBSTRUCTURE
  1 ****  22 GROUP 4 **** **** 0

# MOE 2022.02 (io_trps.svl 2020.11)

@<TRIPOS>MOLECULE
CEP103
40 42 1 0 0 
SMALL
USER_CHARGES


@<TRIPOS>ATOM
  1 H        0.7310     1.7250    -0.0500 H     1 <1>   0.0600 
  2 C        0.1410     0.7970    -0.0080 C.2   1 <1>   0.3760 
  3 N       -1.1470     0.9230    -0.0360 N.2   1 <1>  -0.5120 
  4 N       -1.8850    -0.2350     0.0010 N.am  1 <1>  -0.2980 
  5 C       -3.3260    -0.0640    -0.0290 C.3   1 <1>   0.3000 
  6 H       -3.5980     0.4610    -0.9500 H     1 <1>   0.0000 
  7 H       -3.6260     0.5360     0.8360 H     1 <1>   0.0000 
  8 H       -3.8480    -1.0240     0.0040 H     1 <1>   0.0000 
  9 C       -1.3280    -1.5010     0.0600 C.2   1 <1>   0.6160 
 10 O       -1.9610    -2.5540     0.0890 O.2   1 <1>  -0.5700 
 11 C        0.1480    -1.5630     0.0920 C.2   1 <1>  -0.1360 
 12 H        0.5570    -2.5620     0.1450 H     1 <1>   0.1500 
 13 C        0.9220    -0.4720     0.0690 C.2   1 <1>   0.1140 
 14 N        2.3150    -0.4450     0.1020 N.pl3 1 <1>  -0.8380 
 15 C        3.1680    -1.6350     0.0450 C.3   1 <1>   0.3690 
 16 H        3.1130    -2.1740     0.9980 H     1 <1>   0.0000 
 17 H        2.8810    -2.3120    -0.7660 H     1 <1>   0.0000 
 18 C        4.5740    -1.0930    -0.1820 C.3   1 <1>   0.0000 
 19 H        5.3390    -1.7700     0.2110 H     1 <1>   0.0000 
 20 H        4.7650    -0.9610    -1.2550 H     1 <1>   0.0000 
 21 C        4.5430     0.2520     0.5300 C.3   1 <1>   0.0610 
 22 H        4.6320     0.1050     1.6140 H     1 <1>   0.0000 
 23 C        5.6310     1.2070     0.0740 C.2   1 <1>   0.5690 
 24 O        5.3610     2.2890    -0.4340 O.2   1 <1>  -0.5700 
 25 N        6.9010     0.7220     0.3450 N.am  1 <1>  -0.5470 
 26 H        6.9640    -0.1720     0.8160 H     1 <1>   0.3700 
 27 C        8.1370     1.3330     0.0440 C.ar  1 <1>   0.1170 
 28 C        9.2990     0.6490     0.4310 C.ar  1 <1>  -0.1500 
 29 H        9.2390    -0.3080     0.9410 H     1 <1>   0.1500 
 30 C       10.5630     1.1840     0.1690 C.ar  1 <1>  -0.1500 
 31 H       11.4560     0.6440     0.4750 H     1 <1>   0.1500 
 32 C       10.6800     2.4080    -0.4820 C.ar  1 <1>  -0.1500 
 33 H       11.6620     2.8270    -0.6870 H     1 <1>   0.1500 
 34 C        9.5330     3.0950    -0.8710 C.ar  1 <1>  -0.1500 
 35 H        9.6170     4.0510    -1.3810 H     1 <1>   0.1500 
 36 C        8.2670     2.5600    -0.6100 C.ar  1 <1>  -0.1500 
 37 H        7.4030     3.1300    -0.9340 H     1 <1>   0.1500 
 38 C        3.1430     0.7670     0.1920 C.3   1 <1>   0.3690 
 39 H        3.1090     1.2970    -0.7660 H     1 <1>   0.0000 
 40 H        2.7910     1.4400     0.9820 H     1 <1>   0.0000 
@<TRIPOS>BOND
  1   1   2  1   
  2   2   3  2   
  3   2  13  1   
  4   3   4  1   
  5   4   5  1   
  6   4   9  am  
  7   5   6  1   
  8   5   7  1   
  9   5   8  1   
 10   9  10  2   
 11   9  11  1   
 12  11  12  1   
 13  11  13  2   
 14  13  14  1   
 15  14  15  1   
 16  14  38  1   
 17  15  16  1   
 18  15  17  1   
 19  15  18  1   
 20  18  19  1   
 21  18  20  1   
 22  18  21  1   
 23  21  22  1   
 24  21  23  1   
 25  21  38  1   
 26  23  24  2   
 27  23  25  am  
 28  25  26  1   
 29  25  27  1   
 30  27  28  ar  
 31  27  36  ar  
 32  28  29  1   
 33  28  30  ar  
 34  30  31  1   
 35  30  32  ar  
 36  32  33  1   
 37  32  34  ar  
 38  34  35  1   
 39  34  36  ar  
 40  36  37  1   
 41  38  39  1   
 42  38  40  1   
@<TRIPOS>SUBSTRUCTURE
  1 ****  38 GROUP 4 **** **** 0

# MOE 2022.02 (io_trps.svl 2020.11)

@<TRIPOS>MOLECULE
CEP104
36 39 1 0 0 
SMALL
USER_CHARGES


@<TRIPOS>ATOM
  1 H        6.0890     3.0130     2.5190 H     1 <1>   0.1500 
  2 C        5.6160     3.1540     1.5540 C.ar  1 <1>  -0.1500 
  3 C        4.2260     3.2930     1.4460 C.ar  1 <1>  -0.1500 
  4 H        3.6450     3.2530     2.3620 H     1 <1>   0.1500 
  5 C        3.6100     3.4760     0.1930 C.ar  1 <1>   0.1170 
  6 N        2.2190     3.6230     0.0130 N.am  1 <1>  -0.5470 
  7 H        1.9120     3.7490    -0.9530 H     1 <1>   0.3700 
  8 C        1.2290     3.6180     0.9730 C.2   1 <1>   0.6160 
  9 O        1.4040     3.4790     2.1810 O.2   1 <1>  -0.5700 
 10 C       -0.1600     3.8010     0.4340 C.2   1 <1>   0.0290 
 11 C       -1.1870     3.8110     1.3120 C.2   1 <1>  -0.1500 
 12 H       -1.0260     3.6900     2.3800 H     1 <1>   0.1500 
 13 C       -2.5340     3.9840     0.8500 C.2   1 <1>  -0.1380 
 14 C       -2.7950     4.1330    -0.4490 C.2   1 <1>  -0.0290 
 15 N       -1.7970     4.1300    -1.3740 N.am  1 <1>  -0.5390 
 16 H       -2.0030     4.2440    -2.3590 H     1 <1>   0.3700 
 17 C       -0.4690     3.9740    -1.0300 C.2   1 <1>   0.6160 
 18 O        0.4180     3.9760    -1.8820 O.2   1 <1>  -0.5700 
 19 C       -4.2400     4.2920    -0.7420 C.3   1 <1>   0.1380 
 20 H       -4.6490     3.3790    -1.1870 H     1 <1>   0.0000 
 21 H       -4.4480     5.1390    -1.4030 H     1 <1>   0.0000 
 22 C       -4.8140     4.5340     0.6620 C.3   1 <1>   0.0000 
 23 H       -4.9670     5.6100     0.8160 H     1 <1>   0.0000 
 24 H       -5.7880     4.0500     0.7950 H     1 <1>   0.0000 
 25 C       -3.7740     4.0150     1.6700 C.3   1 <1>   0.1380 
 26 H       -3.6950     4.6870     2.5300 H     1 <1>   0.0000 
 27 H       -4.0320     3.0110     2.0230 H     1 <1>   0.0000 
 28 C        4.4030     3.5210    -0.9640 C.ar  1 <1>  -0.1500 
 29 H        3.9710     3.6600    -1.9500 H     1 <1>   0.1500 
 30 C        5.7690     3.3810    -0.8290 C.ar  1 <1>   0.0820 
 31 C        6.3600     3.2030     0.3980 C.ar  1 <1>   0.0820 
 32 O        7.7110     3.0870     0.3120 O.3   1 <1>  -0.3630 
 33 C        7.9050     3.2130    -1.1120 C.3   1 <1>   0.5600 
 34 H        8.3970     2.3060    -1.4800 H     1 <1>   0.0000 
 35 H        8.5600     4.0710    -1.3030 H     1 <1>   0.0000 
 36 O        6.6750     3.4010    -1.8430 O.3   1 <1>  -0.3630 
@<TRIPOS>BOND
  1   1   2  1   
  2   2   3  ar  
  3   2  31  ar  
  4   3   4  1   
  5   3   5  ar  
  6   5   6  1   
  7   5  28  ar  
  8   6   7  1   
  9   6   8  am  
 10   8   9  2   
 11   8  10  1   
 12  10  11  2   
 13  10  17  1   
 14  11  12  1   
 15  11  13  1   
 16  13  14  2   
 17  13  25  1   
 18  14  15  1   
 19  14  19  1   
 20  15  16  1   
 21  15  17  am  
 22  17  18  2   
 23  19  20  1   
 24  19  21  1   
 25  19  22  1   
 26  22  23  1   
 27  22  24  1   
 28  22  25  1   
 29  25  26  1   
 30  25  27  1   
 31  28  29  1   
 32  28  30  ar  
 33  30  31  ar  
 34  30  36  1   
 35  31  32  1   
 36  32  33  1   
 37  33  34  1   
 38  33  35  1   
 39  33  36  1   
@<TRIPOS>SUBSTRUCTURE
  1 ****   6 GROUP 4 **** **** 0

# MOE 2022.02 (io_trps.svl 2020.11)

@<TRIPOS>MOLECULE
CEP105
31 33 1 0 0 
SMALL
USER_CHARGES


@<TRIPOS>ATOM
  1 H       -1.5250     4.0030    -0.2230 H     1 <1>   0.1500 
  2 C       -0.8640     3.1440    -0.1520 C.ar  1 <1>  -0.1500 
  3 C        0.5230     3.3330    -0.1290 C.ar  1 <1>  -0.1500 
  4 H        0.8960     4.3510    -0.1890 H     1 <1>   0.1500 
  5 C        1.3840     2.2380    -0.0260 C.ar  1 <1>   0.1170 
  6 N        2.7850     2.3480     0.0150 N.am  1 <1>  -0.5470 
  7 H        3.3230     1.4880     0.0890 H     1 <1>   0.3700 
  8 C        3.5490     3.4950    -0.0330 C.2   1 <1>   0.6300 
  9 O        3.1820     4.6560    -0.1240 O.2   1 <1>  -0.5700 
 10 C        5.0490     3.1910     0.0450 C.2   1 <1>   0.4360 
 11 N        5.4190     1.9440     0.1230 N.2   1 <1>  -0.5120 
 12 N        6.7680     1.7180     0.1930 N.am  1 <1>  -0.3680 
 13 H        7.0700     0.7500     0.2530 H     1 <1>   0.3700 
 14 C        7.7470     2.6810     0.1890 C.2   1 <1>   0.6160 
 15 O        8.9430     2.4230     0.2540 O.2   1 <1>  -0.5700 
 16 C        7.2780     4.0780     0.1000 C.2   1 <1>  -0.1360 
 17 H        8.0370     4.8490     0.0960 H     1 <1>   0.1500 
 18 C        5.9720     4.3470     0.0290 C.2   1 <1>  -0.1360 
 19 H        5.5770     5.3520    -0.0370 H     1 <1>   0.1500 
 20 C        0.8430     0.9480     0.0420 C.ar  1 <1>  -0.1500 
 21 H        1.4850     0.0750     0.1150 H     1 <1>   0.1500 
 22 C       -0.5400     0.7600     0.0070 C.ar  1 <1>   0.0820 
 23 C       -1.3950     1.8610    -0.0680 C.ar  1 <1>   0.0820 
 24 O       -2.7620     1.7540    -0.0700 O.3   1 <1>  -0.3630 
 25 C       -3.1820     0.4570     0.3670 C.3   1 <1>   0.2800 
 26 H       -3.0840     0.4080     1.4590 H     1 <1>   0.0000 
 27 H       -4.2410     0.3480     0.1150 H     1 <1>   0.0000 
 28 C       -2.3660    -0.6290    -0.3140 C.3   1 <1>   0.2800 
 29 H       -2.7250    -1.6180    -0.0120 H     1 <1>   0.0000 
 30 H       -2.4360    -0.5590    -1.4070 H     1 <1>   0.0000 
 31 O       -0.9860    -0.5370     0.0600 O.3   1 <1>  -0.3630 
@<TRIPOS>BOND
  1   1   2  1   
  2   2   3  ar  
  3   2  23  ar  
  4   3   4  1   
  5   3   5  ar  
  6   5   6  1   
  7   5  20  ar  
  8   6   7  1   
  9   6   8  am  
 10   8   9  2   
 11   8  10  1   
 12  10  11  2   
 13  10  18  1   
 14  11  12  1   
 15  12  13  1   
 16  12  14  am  
 17  14  15  2   
 18  14  16  1   
 19  16  17  1   
 20  16  18  2   
 21  18  19  1   
 22  20  21  1   
 23  20  22  ar  
 24  22  23  ar  
 25  22  31  1   
 26  23  24  1   
 27  24  25  1   
 28  25  26  1   
 29  25  27  1   
 30  25  28  1   
 31  28  29  1   
 32  28  30  1   
 33  28  31  1   
@<TRIPOS>SUBSTRUCTURE
  1 ****   6 GROUP 4 **** **** 0

# MOE 2022.02 (io_trps.svl 2020.11)

@<TRIPOS>MOLECULE
CEP106
42 44 1 0 0 
SMALL
USER_CHARGES


@<TRIPOS>ATOM
  1 H        2.5690     0.3530     1.7210 H     1 <1>   0.4000 
  2 O        1.8890     0.3230     1.0260 O.3   1 <1>  -0.6800 
  3 C        1.7570     1.6780     0.6580 C.3   1 <1>   0.5500 
  4 H        1.6240     1.7300    -0.4260 H     1 <1>   0.0000 
  5 N        2.9760     2.3570     1.0830 N.3   1 <1>  -0.9000 
  6 H        2.7530     3.3390     1.2510 H     1 <1>   0.3600 
  7 C        4.0480     2.3220     0.0680 C.3   1 <1>   0.2700 
  8 H        3.6550     2.7100    -0.8820 H     1 <1>   0.0000 
  9 C        4.6190     0.9130    -0.1660 C.3   1 <1>   0.0000 
 10 H        3.8530     0.2500    -0.5840 H     1 <1>   0.0000 
 11 H        4.9390     0.4750     0.7880 H     1 <1>   0.0000 
 12 C        5.8040     0.9310    -1.1320 C.3   1 <1>   0.0000 
 13 H        5.4550     1.2250    -2.1290 H     1 <1>   0.0000 
 14 H        6.2170    -0.0800    -1.2250 H     1 <1>   0.0000 
 15 C        6.8950     1.8900    -0.6720 C.3   1 <1>   0.0000 
 16 H        7.3430     1.5160     0.2570 H     1 <1>   0.0000 
 17 H        7.6950     1.9250    -1.4200 H     1 <1>   0.0000 
 18 C        6.3420     3.2910    -0.4440 C.3   1 <1>   0.0000 
 19 H        6.0200     3.7190    -1.4020 H     1 <1>   0.0000 
 20 H        7.1340     3.9400    -0.0540 H     1 <1>   0.0000 
 21 C        5.1660     3.2760     0.5290 C.3   1 <1>   0.0000 
 22 H        4.7750     4.2970     0.6270 H     1 <1>   0.0000 
 23 H        5.5280     2.9790     1.5230 H     1 <1>   0.0000 
 24 C        0.5420     2.2560     1.3910 C.3   1 <1>   0.0610 
 25 H        0.5100     3.3490     1.3080 H     1 <1>   0.0000 
 26 H        0.5750     1.9990     2.4570 H     1 <1>   0.0000 
 27 C       -0.7480     1.7240     0.8120 C.2   1 <1>   0.3890 
 28 N       -1.5220     0.9550     1.5230 N.2   1 <1>  -0.6290 
 29 C       -2.7100     0.4850     0.9350 C.ar  1 <1>   0.1790 
 30 C       -3.5410    -0.3550     1.6780 C.ar  1 <1>  -0.1500 
 31 H       -3.2550    -0.6290     2.6900 H     1 <1>   0.1500 
 32 C       -4.7290    -0.8440     1.1300 C.ar  1 <1>  -0.1500 
 33 H       -5.3670    -1.4980     1.7200 H     1 <1>   0.1500 
 34 C       -5.0960    -0.4960    -0.1700 C.ar  1 <1>  -0.1500 
 35 H       -6.0220    -0.8790    -0.5930 H     1 <1>   0.1500 
 36 C       -4.2760     0.3410    -0.9270 C.ar  1 <1>  -0.1500 
 37 H       -4.5710     0.6060    -1.9380 H     1 <1>   0.1500 
 38 C       -3.0910     0.8260    -0.3730 C.ar  1 <1>   0.1170 
 39 N       -2.2670     1.6710    -1.1210 N.am  1 <1>  -0.5470 
 40 H       -2.5150     1.9410    -2.0630 H     1 <1>   0.3700 
 41 C       -1.0980     2.1690    -0.6080 C.2   1 <1>   0.6300 
 42 O       -0.3700     2.9410    -1.2150 O.2   1 <1>  -0.5700 
@<TRIPOS>BOND
  1   1   2  1   
  2   2   3  1   
  3   3   4  1   
  4   3   5  1   
  5   3  24  1   
  6   5   6  1   
  7   5   7  1   
  8   7   8  1   
  9   7   9  1   
 10   7  21  1   
 11   9  10  1   
 12   9  11  1   
 13   9  12  1   
 14  12  13  1   
 15  12  14  1   
 16  12  15  1   
 17  15  16  1   
 18  15  17  1   
 19  15  18  1   
 20  18  19  1   
 21  18  20  1   
 22  18  21  1   
 23  21  22  1   
 24  21  23  1   
 25  24  25  1   
 26  24  26  1   
 27  24  27  1   
 28  27  28  2   
 29  27  41  1   
 30  28  29  1   
 31  29  30  ar  
 32  29  38  ar  
 33  30  31  1   
 34  30  32  ar  
 35  32  33  1   
 36  32  34  ar  
 37  34  35  1   
 38  34  36  ar  
 39  36  37  1   
 40  36  38  ar  
 41  38  39  1   
 42  39  40  1   
 43  39  41  am  
 44  41  42  2   
@<TRIPOS>SUBSTRUCTURE
  1 ****   3 GROUP 4 **** **** 0

# MOE 2022.02 (io_trps.svl 2020.11)

@<TRIPOS>MOLECULE
CEP107
36 37 1 0 0 
SMALL
USER_CHARGES


@<TRIPOS>ATOM
  1 H       13.6860    -2.8180    -1.1630 H     1 <1>   0.4000 
  2 O       13.0820    -2.1140    -0.8710 O.3   1 <1>  -0.6800 
  3 C       11.8360    -2.6820    -1.1210 C.3   1 <1>   0.8500 
  4 H       11.5320    -2.5310    -2.1610 H     1 <1>   0.0000 
  5 N       11.9210    -4.0540    -0.7510 N.3   1 <1>  -0.9900 
  6 H       10.9970    -4.4490    -0.9380 H     1 <1>   0.3600 
  7 H       12.0120    -4.0780     0.2600 H     1 <1>   0.3600 
  8 N       10.9500    -2.0620    -0.2200 N.am  1 <1>  -0.7300 
  9 H       11.3850    -1.4770     0.4770 H     1 <1>   0.3700 
 10 C        9.5880    -2.1950    -0.3100 C.2   1 <1>   0.5690 
 11 O        9.0420    -2.9280    -1.1290 O.2   1 <1>  -0.5700 
 12 C        8.8310    -1.4020     0.7240 C.3   1 <1>   0.1220 
 13 H        9.2830    -0.4110     0.8390 H     1 <1>   0.0000 
 14 H        8.9190    -1.9240     1.6840 H     1 <1>   0.0000 
 15 C        7.3820    -1.2300     0.3760 C.2   1 <1>   0.3890 
 16 N        6.4570    -1.7600     1.1230 N.2   1 <1>  -0.6290 
 17 C        5.1170    -1.5970     0.7220 C.ar  1 <1>   0.1790 
 18 C        4.1100    -2.1700     1.4990 C.ar  1 <1>  -0.1500 
 19 H        4.3960    -2.7220     2.3920 H     1 <1>   0.1500 
 20 C        2.7550    -2.0470     1.1450 C.ar  1 <1>  -0.1440 
 21 C        1.7090    -2.6900     2.0150 C.3   1 <1>   0.1440 
 22 H        0.9910    -1.9410     2.3650 H     1 <1>   0.0000 
 23 H        1.1820    -3.4710     1.4590 H     1 <1>   0.0000 
 24 H        2.1530    -3.1550     2.9010 H     1 <1>   0.0000 
 25 C        2.4060    -1.3360    -0.0220 C.ar  1 <1>  -0.1440 
 26 C        0.9690    -1.1790    -0.4430 C.3   1 <1>   0.1440 
 27 H        0.8840    -0.6280    -1.3850 H     1 <1>   0.0000 
 28 H        0.4100    -0.6250     0.3170 H     1 <1>   0.0000 
 29 H        0.5080    -2.1600    -0.5940 H     1 <1>   0.0000 
 30 C        3.4190    -0.7570    -0.8050 C.ar  1 <1>  -0.1500 
 31 H        3.1580    -0.2050    -1.7030 H     1 <1>   0.1500 
 32 C        4.7560    -0.8890    -0.4310 C.ar  1 <1>   0.1170 
 33 N        5.7570    -0.2990    -1.2100 N.am  1 <1>  -0.5470 
 34 H        5.5310     0.2250    -2.0420 H     1 <1>   0.3700 
 35 C        7.0810    -0.4020    -0.8700 C.2   1 <1>   0.6300 
 36 O        7.9850     0.1510    -1.4790 O.2   1 <1>  -0.5700 
@<TRIPOS>BOND
  1   1   2  1   
  2   2   3  1   
  3   3   4  1   
  4   3   5  1   
  5   3   8  1   
  6   5   6  1   
  7   5   7  1   
  8   8   9  1   
  9   8  10  am  
 10  10  11  2   
 11  10  12  1   
 12  12  13  1   
 13  12  14  1   
 14  12  15  1   
 15  15  16  2   
 16  15  35  1   
 17  16  17  1   
 18  17  18  ar  
 19  17  32  ar  
 20  18  19  1   
 21  18  20  ar  
 22  20  21  1   
 23  20  25  ar  
 24  21  22  1   
 25  21  23  1   
 26  21  24  1   
 27  25  26  1   
 28  25  30  ar  
 29  26  27  1   
 30  26  28  1   
 31  26  29  1   
 32  30  31  1   
 33  30  32  ar  
 34  32  33  1   
 35  33  34  1   
 36  33  35  am  
 37  35  36  2   
@<TRIPOS>SUBSTRUCTURE
  1 ****  15 GROUP 4 **** **** 0

# MOE 2022.02 (io_trps.svl 2020.11)

@<TRIPOS>MOLECULE
CEP108
35 37 1 0 0 
SMALL
USER_CHARGES


@<TRIPOS>ATOM
  1 H        3.4090     4.4930     0.5790 H     1 <1>   0.1500 
  2 C        2.3280     4.5210     0.4680 C.ar  1 <1>  -0.1500 
  3 C        1.6960     3.6460    -0.4120 C.ar  1 <1>  -0.1500 
  4 H        2.2820     2.9370    -0.9910 H     1 <1>   0.1500 
  5 C        0.3050     3.6730    -0.5510 C.ar  1 <1>  -0.1500 
  6 H       -0.1590     2.9840    -1.2520 H     1 <1>   0.1500 
  7 C       -0.4730     4.5780     0.1840 C.ar  1 <1>   0.1170 
  8 N       -1.9140     4.6110     0.0500 N.am  1 <1>  -0.2860 
  9 C       -2.6190     5.8310    -0.0960 C.2   1 <1>   0.2090 
 10 N       -1.9360     7.0100    -0.3270 N.pl3 1 <1>  -0.9000 
 11 H       -0.9370     6.9810    -0.4900 H     1 <1>   0.4000 
 12 H       -2.4030     7.9090    -0.3670 H     1 <1>   0.4000 
 13 C       -3.9780     5.8130    -0.0750 C.2   1 <1>   0.0650 
 14 C       -4.7140     7.0330    -0.2320 C.1   1 <1>   0.4920 
 15 N       -5.3010     8.0270    -0.3560 N.1   1 <1>  -0.5570 
 16 C       -4.7250     4.5660     0.0550 C.2   1 <1>  -0.1380 
 17 C       -4.0710     3.3930     0.0880 C.2   1 <1>  -0.1240 
 18 C       -2.5760     3.3670     0.0940 C.2   1 <1>   0.6160 
 19 O       -2.0280     2.2670     0.1890 O.2   1 <1>  -0.5700 
 20 C       -4.7570     2.0520     0.1440 C.3   1 <1>   0.1380 
 21 H       -4.6170     1.6310     1.1480 H     1 <1>   0.0000 
 22 H       -4.2950     1.3560    -0.5660 H     1 <1>   0.0000 
 23 C       -6.2510     2.1240    -0.1680 C.3   1 <1>   0.0000 
 24 H       -6.7370     1.1890     0.1320 H     1 <1>   0.0000 
 25 H       -6.3980     2.2270    -1.2500 H     1 <1>   0.0000 
 26 C       -6.8930     3.3020     0.5480 C.3   1 <1>   0.0000 
 27 H       -6.7900     3.1730     1.6330 H     1 <1>   0.0000 
 28 H       -7.9660     3.3370     0.3310 H     1 <1>   0.0000 
 29 C       -6.2400     4.6210     0.1240 C.3   1 <1>   0.1380 
 30 H       -6.5650     5.3890     0.8370 H     1 <1>   0.0000 
 31 H       -6.6260     4.9060    -0.8630 H     1 <1>   0.0000 
 32 C        0.1800     5.4450     1.0770 C.ar  1 <1>  -0.1500 
 33 H       -0.3920     6.1270     1.7010 H     1 <1>   0.1500 
 34 C        1.5710     5.4180     1.2160 C.ar  1 <1>  -0.1500 
 35 H        2.0590     6.0890     1.9180 H     1 <1>   0.1500 
@<TRIPOS>BOND
  1   1   2  1   
  2   2   3  ar  
  3   2  34  ar  
  4   3   4  1   
  5   3   5  ar  
  6   5   6  1   
  7   5   7  ar  
  8   7   8  1   
  9   7  32  ar  
 10   8   9  1   
 11   8  18  am  
 12   9  10  1   
 13   9  13  2   
 14  10  11  1   
 15  10  12  1   
 16  13  14  1   
 17  13  16  1   
 18  14  15  3   
 19  16  17  2   
 20  16  29  1   
 21  17  18  1   
 22  17  20  1   
 23  18  19  2   
 24  20  21  1   
 25  20  22  1   
 26  20  23  1   
 27  23  24  1   
 28  23  25  1   
 29  23  26  1   
 30  26  27  1   
 31  26  28  1   
 32  26  29  1   
 33  29  30  1   
 34  29  31  1   
 35  32  33  1   
 36  32  34  ar  
 37  34  35  1   
@<TRIPOS>SUBSTRUCTURE
  1 ****   8 GROUP 4 **** **** 0

# MOE 2022.02 (io_trps.svl 2020.11)

@<TRIPOS>MOLECULE
CEP109
29 31 1 0 0 
SMALL
USER_CHARGES


@<TRIPOS>ATOM
  1 H        2.7330     4.5930     1.0310 H     1 <1>   0.4500 
  2 O        2.9320     3.6520     1.1490 O.3   1 <1>  -0.5270 
  3 C        1.8720     2.9350     0.6490 C.2   1 <1>   0.1770 
  4 C        2.0090     1.6370     0.3240 C.2   1 <1>   0.0290 
  5 C        3.3030     0.9550     0.4940 C.2   1 <1>   0.7670 
  6 O        3.4980     0.1660     1.4150 O.2   1 <1>  -0.5700 
  7 N        4.1960     1.3080    -0.4870 N.2   1 <1>  -0.6610 
  8 C        5.3370     0.7240    -0.4650 C.2   1 <1>   0.6410 
  9 S        6.5630     1.1360    -1.7080 S.3   1 <1>  -0.2420 
 10 C        7.7000    -0.0030    -1.0070 C.2   1 <1>  -0.0490 
 11 H        8.6900    -0.1650    -1.4100 H     1 <1>   0.1500 
 12 C        7.1700    -0.6160     0.0600 C.2   1 <1>  -0.0500 
 13 H        7.6470    -1.3630     0.6800 H     1 <1>   0.1500 
 14 N        5.8940    -0.2250     0.3550 N.pl3 1 <1>  -0.5500 
 15 H        5.3620    -0.6000     1.1350 H     1 <1>   0.4000 
 16 C        0.8330     0.8980    -0.1940 C.2   1 <1>   0.4690 
 17 O        0.8930    -0.2860    -0.5090 O.2   1 <1>  -0.5700 
 18 C       -0.4380     1.6500    -0.3400 C.ar  1 <1>   0.0860 
 19 C       -1.5830     1.0170    -0.8360 C.ar  1 <1>  -0.1500 
 20 H       -1.5520    -0.0330    -1.1190 H     1 <1>   0.1500 
 21 C       -2.7670     1.7410    -0.9690 C.ar  1 <1>  -0.1500 
 22 H       -3.6600     1.2540    -1.3540 H     1 <1>   0.1500 
 23 C       -2.8040     3.0880    -0.6070 C.ar  1 <1>  -0.1500 
 24 H       -3.7300     3.6500    -0.7110 H     1 <1>   0.1500 
 25 C       -1.6590     3.7190    -0.1110 C.ar  1 <1>  -0.1500 
 26 H       -1.7140     4.7680     0.1650 H     1 <1>   0.1500 
 27 C       -0.4660     3.0050     0.0280 C.ar  1 <1>   0.1000 
 28 N        0.6910     3.6200     0.5240 N.pl3 1 <1>  -0.6000 
 29 H        0.6350     4.5880     0.8080 H     1 <1>   0.4000 
@<TRIPOS>BOND
  1   1   2  1   
  2   2   3  1   
  3   3   4  2   
  4   3  28  1   
  5   4   5  1   
  6   4  16  1   
  7   5   6  2   
  8   5   7  1   
  9   7   8  2   
 10   8   9  1   
 11   8  14  1   
 12   9  10  1   
 13  10  11  1   
 14  10  12  2   
 15  12  13  1   
 16  12  14  1   
 17  14  15  1   
 18  16  17  2   
 19  16  18  1   
 20  18  19  ar  
 21  18  27  ar  
 22  19  20  1   
 23  19  21  ar  
 24  21  22  1   
 25  21  23  ar  
 26  23  24  1   
 27  23  25  ar  
 28  25  26  1   
 29  25  27  ar  
 30  27  28  1   
 31  28  29  1   
@<TRIPOS>SUBSTRUCTURE
  1 ****   4 GROUP 4 **** **** 0

# MOE 2022.02 (io_trps.svl 2020.11)

@<TRIPOS>MOLECULE
CEP110
38 40 1 0 0 
SMALL
USER_CHARGES


@<TRIPOS>ATOM
  1 H        3.4570     2.8660     1.8460 H     1 <1>   0.1500 
  2 C        2.5070     3.2640     1.4960 C.ar  1 <1>  -0.1500 
  3 C        2.4110     3.8190     0.2220 C.ar  1 <1>  -0.1500 
  4 H        3.2850     3.8540    -0.4240 H     1 <1>   0.1500 
  5 C        1.1930     4.3370    -0.2270 C.ar  1 <1>  -0.1500 
  6 H        1.1450     4.7600    -1.2270 H     1 <1>   0.1500 
  7 C        0.0540     4.2960     0.5890 C.ar  1 <1>   0.1170 
  8 N       -1.2070     4.8150     0.1220 N.am  1 <1>  -0.2860 
  9 C       -2.4110     4.0690     0.1930 C.2   1 <1>  -0.0290 
 10 C       -3.5790     4.6380    -0.1690 C.2   1 <1>   0.0140 
 11 C       -3.6130     5.9980    -0.6500 C.2   1 <1>  -0.1500 
 12 H       -4.5840     6.4150    -0.9170 H     1 <1>   0.1500 
 13 C       -2.4970     6.7210    -0.7950 C.2   1 <1>   0.0790 
 14 C       -2.5450     8.0510    -1.2950 C.1   1 <1>   0.4920 
 15 N       -2.6480     9.1300    -1.7120 N.1   1 <1>  -0.5570 
 16 C       -1.1830     6.1330    -0.4090 C.2   1 <1>   0.6160 
 17 O       -0.1730     6.8270    -0.5330 O.2   1 <1>  -0.5700 
 18 C       -4.8660     3.8670    -0.1020 C.2   1 <1>   0.4950 
 19 O       -5.9330     4.4210    -0.3700 O.2   1 <1>  -0.5700 
 20 C       -4.8380     2.4270     0.3530 C.3   1 <1>   0.0610 
 21 H       -5.6660     1.8970    -0.1320 H     1 <1>   0.0000 
 22 H       -5.0260     2.4270     1.4340 H     1 <1>   0.0000 
 23 C       -3.5090     1.7390     0.0260 C.3   1 <1>   0.0000 
 24 C       -3.3630     1.5290    -1.4960 C.3   1 <1>   0.0000 
 25 H       -4.1790     0.9100    -1.8850 H     1 <1>   0.0000 
 26 H       -3.3720     2.4710    -2.0530 H     1 <1>   0.0000 
 27 H       -2.4210     1.0190    -1.7310 H     1 <1>   0.0000 
 28 C       -3.4770     0.3550     0.7030 C.3   1 <1>   0.0000 
 29 H       -3.5860     0.4410     1.7900 H     1 <1>   0.0000 
 30 H       -4.2900    -0.2820     0.3370 H     1 <1>   0.0000 
 31 H       -2.5310    -0.1600     0.5040 H     1 <1>   0.0000 
 32 C       -2.3500     2.5980     0.5790 C.3   1 <1>   0.1380 
 33 H       -1.4150     2.1470     0.2240 H     1 <1>   0.0000 
 34 H       -2.3530     2.5340     1.6740 H     1 <1>   0.0000 
 35 C        0.1710     3.7530     1.8780 C.ar  1 <1>  -0.1500 
 36 H       -0.6710     3.7630     2.5630 H     1 <1>   0.1500 
 37 C        1.3900     3.2360     2.3260 C.ar  1 <1>  -0.1500 
 38 H        1.4690     2.8240     3.3290 H     1 <1>   0.1500 
@<TRIPOS>BOND
  1   1   2  1   
  2   2   3  ar  
  3   2  37  ar  
  4   3   4  1   
  5   3   5  ar  
  6   5   6  1   
  7   5   7  ar  
  8   7   8  1   
  9   7  35  ar  
 10   8   9  1   
 11   8  16  am  
 12   9  10  2   
 13   9  32  1   
 14  10  11  1   
 15  10  18  1   
 16  11  12  1   
 17  11  13  2   
 18  13  14  1   
 19  13  16  1   
 20  14  15  3   
 21  16  17  2   
 22  18  19  2   
 23  18  20  1   
 24  20  21  1   
 25  20  22  1   
 26  20  23  1   
 27  23  24  1   
 28  23  28  1   
 29  23  32  1   
 30  24  25  1   
 31  24  26  1   
 32  24  27  1   
 33  28  29  1   
 34  28  30  1   
 35  28  31  1   
 36  32  33  1   
 37  32  34  1   
 38  35  36  1   
 39  35  37  ar  
 40  37  38  1   
@<TRIPOS>SUBSTRUCTURE
  1 ****   9 GROUP 4 **** **** 0

# MOE 2022.02 (io_trps.svl 2020.11)

@<TRIPOS>MOLECULE
CEP111
31 32 1 0 0 
SMALL
USER_CHARGES


@<TRIPOS>ATOM
  1 H        1.1850     3.6130     0.8660 H     1 <1>   0.5000 
  2 O        0.9240     2.6810     0.7060 O.3   1 <1>  -0.6500 
  3 C        2.0840     2.0230     0.5390 C.2   1 <1>   0.6340 
  4 O        3.1550     2.6030     0.6110 O.2   1 <1>  -0.5700 
  5 C        1.9160     0.5710     0.2620 C.ar  1 <1>   0.0860 
  6 C        0.6280     0.0080     0.2810 C.ar  1 <1>  -0.1500 
  7 H       -0.2460     0.6210     0.4890 H     1 <1>   0.1500 
  8 C        0.4480    -1.3510     0.0360 C.ar  1 <1>  -0.1500 
  9 H       -0.5500    -1.7820     0.0520 H     1 <1>   0.1500 
 10 C        1.5510    -2.1540    -0.2300 C.ar  1 <1>  -0.1500 
 11 H        1.4170    -3.2160    -0.4240 H     1 <1>   0.1500 
 12 C        2.8370    -1.6040    -0.2520 C.ar  1 <1>  -0.1500 
 13 H        3.6580    -2.2800    -0.4730 H     1 <1>   0.1500 
 14 C        3.0460    -0.2410    -0.0070 C.ar  1 <1>   0.1170 
 15 N        4.3430     0.3460    -0.0310 N.am  1 <1>  -0.5470 
 16 H        4.3400     1.3580     0.1200 H     1 <1>   0.3700 
 17 C        5.5600    -0.2820    -0.2120 C.2   1 <1>   0.6160 
 18 O        5.7360    -1.4930    -0.3030 O.2   1 <1>  -0.5700 
 19 C        6.7410     0.6480    -0.2610 C.2   1 <1>   0.0790 
 20 C        6.5770     1.9490    -0.8060 C.1   1 <1>   0.4920 
 21 N        6.4220     3.0130    -1.2420 N.1   1 <1>  -0.5570 
 22 C        7.9140     0.1400     0.1670 C.2   1 <1>  -0.1050 
 23 H        7.9370    -0.8950     0.5110 H     1 <1>   0.1500 
 24 C        9.1540     0.8410     0.1920 C.2   1 <1>  -0.0050 
 25 S       10.5700    -0.1150    -0.0180 S.3   1 <1>  -0.0800 
 26 C       11.5990     1.2420     0.1080 C.2   1 <1>  -0.1100 
 27 H       12.6710     1.1230     0.0230 H     1 <1>   0.1500 
 28 C       10.8940     2.4020     0.3250 C.2   1 <1>  -0.1500 
 29 H       11.3610     3.3730     0.4430 H     1 <1>   0.1500 
 30 C        9.4870     2.1710     0.3820 C.2   1 <1>  -0.1500 
 31 H        8.7690     2.9620     0.5640 H     1 <1>   0.1500 
@<TRIPOS>BOND
  1   1   2  1   
  2   2   3  1   
  3   3   4  2   
  4   3   5  1   
  5   5   6  ar  
  6   5  14  ar  
  7   6   7  1   
  8   6   8  ar  
  9   8   9  1   
 10   8  10  ar  
 11  10  11  1   
 12  10  12  ar  
 13  12  13  1   
 14  12  14  ar  
 15  14  15  1   
 16  15  16  1   
 17  15  17  am  
 18  17  18  2   
 19  17  19  1   
 20  19  20  1   
 21  19  22  2   
 22  20  21  3   
 23  22  23  1   
 24  22  24  1   
 25  24  25  1   
 26  24  30  2   
 27  25  26  1   
 28  26  27  1   
 29  26  28  2   
 30  28  29  1   
 31  28  30  1   
 32  30  31  1   
@<TRIPOS>SUBSTRUCTURE
  1 ****  17 GROUP 4 **** **** 0

# MOE 2022.02 (io_trps.svl 2020.11)

@<TRIPOS>MOLECULE
CEP112
36 37 1 0 0 
SMALL
USER_CHARGES


@<TRIPOS>ATOM
  1 H       -2.7760    -2.1140    -1.1820 H     1 <1>   0.1500 
  2 C       -2.0900    -2.5360    -0.4500 C.ar  1 <1>  -0.1500 
  3 C       -2.5260    -2.7970     0.8440 C.ar  1 <1>  -0.1500 
  4 H       -3.5530    -2.5780     1.1290 H     1 <1>   0.1500 
  5 C       -1.6400    -3.3370     1.7710 C.ar  1 <1>  -0.1500 
  6 H       -1.9920    -3.5350     2.7820 H     1 <1>   0.1500 
  7 C       -0.3120    -3.6160     1.3930 C.ar  1 <1>   0.1330 
  8 N        0.5720    -4.1650     2.4260 N.pl3 1 <1>   0.9070 
  9 O        0.3140    -3.8920     3.6070 O.2   1 <1>  -0.5200 
 10 O        1.5220    -4.8740     2.0630 O.2   1 <1>  -0.5200 
 11 C        0.1500    -3.3590     0.0830 C.ar  1 <1>   0.1170 
 12 N        1.4830    -3.6390    -0.2950 N.am  1 <1>  -0.5470 
 13 H        2.0940    -4.0900     0.3950 H     1 <1>   0.3700 
 14 C        2.1270    -3.3820    -1.4940 C.2   1 <1>   0.5690 
 15 O        1.6480    -2.8270    -2.4790 O.2   1 <1>  -0.5700 
 16 C        3.5590    -3.9380    -1.5180 C.3   1 <1>   0.3310 
 17 H        4.1600    -3.3740    -2.2400 H     1 <1>   0.0000 
 18 H        3.4680    -4.9710    -1.8770 H     1 <1>   0.0000 
 19 N        4.1650    -3.9150    -0.1630 N.3   1 <1>  -0.8100 
 20 C        4.5590    -2.5440     0.2120 C.3   1 <1>   0.2700 
 21 H        5.3000    -2.1440    -0.4930 H     1 <1>   0.0000 
 22 H        3.6920    -1.8740     0.1850 H     1 <1>   0.0000 
 23 C        5.1320    -2.5120     1.6300 C.3   1 <1>   0.0000 
 24 H        5.4460    -1.4930     1.8800 H     1 <1>   0.0000 
 25 H        4.3500    -2.7900     2.3480 H     1 <1>   0.0000 
 26 C        6.3140    -3.4630     1.7700 C.3   1 <1>   0.0000 
 27 H        6.6430    -3.5040     2.8150 H     1 <1>   0.0000 
 28 H        7.1590    -3.0850     1.1810 H     1 <1>   0.0000 
 29 C        5.9390    -4.8570     1.2840 C.3   1 <1>   0.0000 
 30 H        6.8260    -5.5000     1.2830 H     1 <1>   0.0000 
 31 H        5.2200    -5.3050     1.9820 H     1 <1>   0.0000 
 32 C        5.3310    -4.8140    -0.1180 C.3   1 <1>   0.2700 
 33 H        6.0920    -4.5020    -0.8450 H     1 <1>   0.0000 
 34 H        5.0240    -5.8330    -0.3840 H     1 <1>   0.0000 
 35 C       -0.7690    -2.8140    -0.8250 C.ar  1 <1>  -0.1500 
 36 H       -0.4920    -2.5930    -1.8520 H     1 <1>   0.1500 
@<TRIPOS>BOND
  1   1   2  1   
  2   2   3  ar  
  3   2  35  ar  
  4   3   4  1   
  5   3   5  ar  
  6   5   6  1   
  7   5   7  ar  
  8   7   8  1   
  9   7  11  ar  
 10   8   9  2   
 11   8  10  2   
 12  11  12  1   
 13  11  35  ar  
 14  12  13  1   
 15  12  14  am  
 16  14  15  2   
 17  14  16  1   
 18  16  17  1   
 19  16  18  1   
 20  16  19  1   
 21  19  20  1   
 22  19  32  1   
 23  20  21  1   
 24  20  22  1   
 25  20  23  1   
 26  23  24  1   
 27  23  25  1   
 28  23  26  1   
 29  26  27  1   
 30  26  28  1   
 31  26  29  1   
 32  29  30  1   
 33  29  31  1   
 34  29  32  1   
 35  32  33  1   
 36  32  34  1   
 37  35  36  1   
@<TRIPOS>SUBSTRUCTURE
  1 ****  12 GROUP 4 **** **** 0

# MOE 2022.02 (io_trps.svl 2020.11)

@<TRIPOS>MOLECULE
CEP113
30 33 1 0 0 
SMALL
USER_CHARGES


@<TRIPOS>ATOM
  1 H       13.9050    -1.7950     0.2840 H     1 <1>   0.4500 
  2 O       13.5890    -0.9380    -0.0440 O.3   1 <1>  -0.5320 
  3 C       12.2270    -0.9360    -0.0260 C.ar  1 <1>   0.0820 
  4 C       11.5040    -2.0410     0.3960 C.ar  1 <1>  -0.1500 
  5 H       12.0030    -2.9430     0.7370 H     1 <1>   0.1500 
  6 C       10.1030    -1.9910     0.3960 C.ar  1 <1>  -0.1500 
  7 H        9.5780    -2.8630     0.7750 H     1 <1>   0.1500 
  8 C        9.4060    -0.8400    -0.0220 C.ar  1 <1>   0.1170 
  9 N        7.9570    -0.8120    -0.0300 N.am  1 <1>  -0.2860 
 10 C        7.2270    -1.9910    -0.2030 C.2   1 <1>  -0.0410 
 11 H        7.7760    -2.9110    -0.3730 H     1 <1>   0.1500 
 12 C        5.8890    -2.0220    -0.2150 C.2   1 <1>  -0.1500 
 13 H        5.3580    -2.9580    -0.3710 H     1 <1>   0.1500 
 14 C        5.1320    -0.8060    -0.0510 C.2   1 <1>  -0.0310 
 15 C        5.7870     0.3550     0.1100 C.2   1 <1>   0.0290 
 16 C        4.9310     1.5630     0.2710 C.2   1 <1>   0.3760 
 17 H        5.4710     2.5150     0.4070 H     1 <1>   0.0600 
 18 N        3.6320     1.5930     0.2660 N.2   1 <1>  -0.5760 
 19 C        3.0080     0.3910     0.0970 C.2   1 <1>   0.3120 
 20 N        1.7220     0.1200     0.0520 N.2   1 <1>  -0.5650 
 21 C        1.6850    -1.2260    -0.1320 C.2   1 <1>   0.3660 
 22 H        0.7600    -1.7830    -0.2130 H     1 <1>   0.1500 
 23 N        2.8660    -1.8370    -0.2080 N.2   1 <1>  -0.7070 
 24 N        3.7320    -0.8010    -0.0600 N.pl3 1 <1>   0.6010 
 25 C        7.2750     0.4180     0.1420 C.2   1 <1>   0.6160 
 26 O        7.7830     1.5190     0.3500 O.2   1 <1>  -0.5700 
 27 C       10.1730     0.2590    -0.4410 C.ar  1 <1>  -0.1500 
 28 H        9.7110     1.1700    -0.8100 H     1 <1>   0.1500 
 29 C       11.5720     0.2120    -0.4440 C.ar  1 <1>  -0.1500 
 30 H       12.1440     1.0740    -0.7770 H     1 <1>   0.1500 
@<TRIPOS>BOND
  1   1   2  1   
  2   2   3  1   
  3   3   4  ar  
  4   3  29  ar  
  5   4   5  1   
  6   4   6  ar  
  7   6   7  1   
  8   6   8  ar  
  9   8   9  1   
 10   8  27  ar  
 11   9  10  1   
 12   9  25  am  
 13  10  11  1   
 14  10  12  2   
 15  12  13  1   
 16  12  14  1   
 17  14  15  2   
 18  14  24  1   
 19  15  16  1   
 20  15  25  1   
 21  16  17  1   
 22  16  18  2   
 23  18  19  1   
 24  19  20  2   
 25  19  24  1   
 26  20  21  1   
 27  21  22  1   
 28  21  23  2   
 29  23  24  1   
 30  25  26  2   
 31  27  28  1   
 32  27  29  ar  
 33  29  30  1   
@<TRIPOS>SUBSTRUCTURE
  1 ****  25 GROUP 4 **** **** 0

# MOE 2022.02 (io_trps.svl 2020.11)

@<TRIPOS>MOLECULE
CEP114
38 39 1 0 0 
SMALL
USER_CHARGES


@<TRIPOS>ATOM
  1 H       -4.9580    -2.0790     0.0320 H     1 <1>   0.1500 
  2 C       -4.8670    -0.9980    -0.0050 C.ar  1 <1>  -0.1500 
  3 C       -3.5760    -0.4740    -0.1680 C.ar  1 <1>  -0.1500 
  4 H       -2.7550    -1.1780    -0.2500 H     1 <1>   0.1500 
  5 C       -3.3700     0.9020    -0.2080 C.ar  1 <1>   0.1170 
  6 N       -2.1060     1.5130    -0.3530 N.am  1 <1>  -0.5470 
  7 H       -2.1100     2.5260    -0.3560 H     1 <1>   0.3700 
  8 C       -0.8680     0.8890    -0.4920 C.2   1 <1>   0.5690 
  9 O       -0.6930    -0.3270    -0.5420 O.2   1 <1>  -0.5700 
 10 C        0.2810     1.9180    -0.6110 C.3   1 <1>   0.3310 
 11 H        0.0400     2.5410    -1.4850 H     1 <1>   0.0000 
 12 N        1.6380     1.3390    -0.8600 N.3   1 <1>  -0.5400 
 13 N        1.9350     0.2630     0.0850 N.3   1 <1>  -0.7200 
 14 H        1.2080    -0.4670    -0.0020 H     1 <1>   0.3600 
 15 H        2.7920    -0.2180    -0.2020 H     1 <1>   0.3600 
 16 C        2.5380     2.4690    -0.5510 C.3   1 <1>   0.2700 
 17 H        2.5550     3.1470    -1.4130 H     1 <1>   0.0000 
 18 H        3.5750     2.1640    -0.3690 H     1 <1>   0.0000 
 19 C        1.9210     3.1800     0.6480 C.3   1 <1>   0.0000 
 20 H        2.3660     2.8230     1.5840 H     1 <1>   0.0000 
 21 H        2.0770     4.2620     0.5950 H     1 <1>   0.0000 
 22 C        0.4400     2.8210     0.6100 C.3   1 <1>   0.0000 
 23 H        0.1490     2.3130     1.5370 H     1 <1>   0.0000 
 24 H       -0.1770     3.7220     0.5200 H     1 <1>   0.0000 
 25 C       -4.4800     1.7440    -0.0970 C.ar  1 <1>  -0.1500 
 26 H       -4.3600     2.8240    -0.1240 H     1 <1>   0.1500 
 27 C       -5.7790     1.2290     0.0390 C.ar  1 <1>   0.0820 
 28 O       -6.7400     2.2050     0.1370 O.3   1 <1>  -0.3630 
 29 C       -8.0080     1.8990    -0.4340 C.3   1 <1>   0.2800 
 30 H       -7.9210     1.3180    -1.3580 H     1 <1>   0.0000 
 31 H       -8.4910     2.8480    -0.6890 H     1 <1>   0.0000 
 32 H       -8.6470     1.3970     0.2990 H     1 <1>   0.0000 
 33 C       -5.9800    -0.1590     0.1130 C.ar  1 <1>   0.0820 
 34 O       -7.2540    -0.6120     0.3210 O.3   1 <1>  -0.3630 
 35 C       -7.4460    -2.0100     0.4950 C.3   1 <1>   0.2800 
 36 H       -8.5100    -2.1790     0.6900 H     1 <1>   0.0000 
 37 H       -7.1850    -2.5590    -0.4160 H     1 <1>   0.0000 
 38 H       -6.8870    -2.3830     1.3590 H     1 <1>   0.0000 
@<TRIPOS>BOND
  1   1   2  1   
  2   2   3  ar  
  3   2  33  ar  
  4   3   4  1   
  5   3   5  ar  
  6   5   6  1   
  7   5  25  ar  
  8   6   7  1   
  9   6   8  am  
 10   8   9  2   
 11   8  10  1   
 12  10  11  1   
 13  10  12  1   
 14  10  22  1   
 15  12  13  1   
 16  12  16  1   
 17  13  14  1   
 18  13  15  1   
 19  16  17  1   
 20  16  18  1   
 21  16  19  1   
 22  19  20  1   
 23  19  21  1   
 24  19  22  1   
 25  22  23  1   
 26  22  24  1   
 27  25  26  1   
 28  25  27  ar  
 29  27  28  1   
 30  27  33  ar  
 31  28  29  1   
 32  29  30  1   
 33  29  31  1   
 34  29  32  1   
 35  33  34  1   
 36  34  35  1   
 37  35  36  1   
 38  35  37  1   
 39  35  38  1   
@<TRIPOS>SUBSTRUCTURE
  1 ****   5 GROUP 4 **** **** 0

# MOE 2022.02 (io_trps.svl 2020.11)

@<TRIPOS>MOLECULE
CEP115
40 41 1 0 0 
SMALL
USER_CHARGES


@<TRIPOS>ATOM
  1 H        1.5140    -0.9290    -0.4430 H     1 <1>   0.4500 
  2 O        0.6290    -0.5020    -0.3790 O.3   1 <1>  -0.5270 
  3 C        0.8060     0.8680    -0.2570 C.2   1 <1>   0.0480 
  4 C        2.0050     1.4830    -0.2360 C.2   1 <1>   0.0290 
  5 C        3.2400     0.6370    -0.3520 C.2   1 <1>   0.6160 
  6 O        3.1600    -0.5890    -0.4470 O.2   1 <1>  -0.5700 
  7 N        4.4400     1.2940    -0.3460 N.am  1 <1>  -0.7300 
  8 H        4.4330     2.3140    -0.2780 H     1 <1>   0.3700 
  9 C        5.7090     0.6000    -0.4490 C.3   1 <1>   0.3000 
 10 H        5.7970     0.2300    -1.4770 H     1 <1>   0.0000 
 11 H        5.6810    -0.2700     0.2170 H     1 <1>   0.0000 
 12 C        6.8950     1.5100    -0.0980 C.3   1 <1>   0.2700 
 13 H        6.9050     2.3620    -0.7900 H     1 <1>   0.0000 
 14 H        6.7520     1.9120     0.9130 H     1 <1>   0.0000 
 15 N        8.1660     0.7850    -0.1770 N.3   1 <1>  -0.9000 
 16 H        8.1520    -0.0010     0.4740 H     1 <1>   0.3600 
 17 C        9.2930     1.6620     0.1380 C.3   1 <1>   0.2700 
 18 H        9.1800     2.0910     1.1400 H     1 <1>   0.0000 
 19 H        9.3440     2.4860    -0.5830 H     1 <1>   0.0000 
 20 C       10.5920     0.8740     0.0780 C.3   1 <1>   0.0000 
 21 H       10.5970     0.0600     0.8120 H     1 <1>   0.0000 
 22 H       10.7490     0.4420    -0.9160 H     1 <1>   0.0000 
 23 H       11.4410     1.5300     0.2980 H     1 <1>   0.0000 
 24 C        2.0700     2.9710    -0.0980 C.2   1 <1>   0.6160 
 25 O        3.1720     3.5280    -0.0820 O.2   1 <1>  -0.5700 
 26 N        0.8790     3.6790     0.0120 N.am  1 <1>  -0.4770 
 27 C        0.9460     5.1280     0.1540 C.3   1 <1>   0.3000 
 28 H        0.4310     5.6000    -0.6890 H     1 <1>   0.0000 
 29 H        1.9760     5.4950     0.1620 H     1 <1>   0.0000 
 30 H        0.4810     5.4220     1.1000 H     1 <1>   0.0000 
 31 C       -0.3910     3.0320    -0.0120 C.ar  1 <1>   0.1170 
 32 C       -1.5930     3.7540     0.0950 C.ar  1 <1>  -0.1500 
 33 H       -1.6040     4.8340     0.2000 H     1 <1>   0.1500 
 34 C       -2.8280     3.1010     0.0700 C.ar  1 <1>  -0.1500 
 35 H       -3.7480     3.6740     0.1550 H     1 <1>   0.1500 
 36 C       -2.8790     1.7200    -0.0620 C.ar  1 <1>  -0.1500 
 37 H       -3.8350     1.2050    -0.0820 H     1 <1>   0.1500 
 38 C       -1.6940     0.9940    -0.1680 C.ar  1 <1>  -0.1500 
 39 H       -1.7550    -0.0880    -0.2710 H     1 <1>   0.1500 
 40 C       -0.4430     1.6370    -0.1450 C.ar  1 <1>   0.0280 
@<TRIPOS>BOND
  1   1   2  1   
  2   2   3  1   
  3   3   4  2   
  4   3  40  1   
  5   4   5  1   
  6   4  24  1   
  7   5   6  2   
  8   5   7  am  
  9   7   8  1   
 10   7   9  1   
 11   9  10  1   
 12   9  11  1   
 13   9  12  1   
 14  12  13  1   
 15  12  14  1   
 16  12  15  1   
 17  15  16  1   
 18  15  17  1   
 19  17  18  1   
 20  17  19  1   
 21  17  20  1   
 22  20  21  1   
 23  20  22  1   
 24  20  23  1   
 25  24  25  2   
 26  24  26  am  
 27  26  27  1   
 28  26  31  1   
 29  27  28  1   
 30  27  29  1   
 31  27  30  1   
 32  31  32  ar  
 33  31  40  ar  
 34  32  33  1   
 35  32  34  ar  
 36  34  35  1   
 37  34  36  ar  
 38  36  37  1   
 39  36  38  ar  
 40  38  39  1   
 41  38  40  ar  
@<TRIPOS>SUBSTRUCTURE
  1 ****   4 GROUP 4 **** **** 0

# MOE 2022.02 (io_trps.svl 2020.11)

@<TRIPOS>MOLECULE
CEP116
32 34 1 0 0 
SMALL
USER_CHARGES


@<TRIPOS>ATOM
  1 H        1.4880     2.5550     3.2660 H     1 <1>   0.4000 
  2 N        2.0470     2.5630     2.4010 N.2   1 <1>  -0.8500 
  3 C        1.2070     2.5980     1.4190 C.2   1 <1>   0.5860 
  4 O       -0.1320     2.6130     1.7510 O.3   1 <1>  -0.2320 
  5 C       -1.1150     2.6470     0.7460 C.ar  1 <1>   0.0820 
  6 C       -2.4470     2.6610     1.1510 C.ar  1 <1>  -0.1500 
  7 H       -2.7040     2.6460     2.2060 H     1 <1>   0.1500 
  8 C       -3.4490     2.6940     0.1820 C.ar  1 <1>  -0.1500 
  9 H       -4.4940     2.7050     0.4810 H     1 <1>   0.1500 
 10 C       -3.1090     2.7120    -1.1720 C.ar  1 <1>  -0.1500 
 11 H       -3.8930     2.7380    -1.9270 H     1 <1>   0.1500 
 12 C       -1.7670     2.6990    -1.5630 C.ar  1 <1>  -0.1500 
 13 H       -1.5220     2.7140    -2.6230 H     1 <1>   0.1500 
 14 C       -0.7590     2.6670    -0.5980 C.ar  1 <1>   0.0280 
 15 C        0.6510     2.6530    -0.9520 C.2   1 <1>  -0.1780 
 16 H        0.9030     2.6700    -2.0090 H     1 <1>   0.1500 
 17 C        1.6020     2.6210    -0.0030 C.2   1 <1>   0.0290 
 18 C        3.0320     2.6090    -0.4720 C.2   1 <1>   0.6160 
 19 O        3.2860     2.6350    -1.6740 O.2   1 <1>  -0.5700 
 20 N        3.9680     2.5690     0.5370 N.am  1 <1>  -0.5470 
 21 H        3.6100     2.5540     1.5000 H     1 <1>   0.3700 
 22 C        5.3750     2.5450     0.4230 C.ar  1 <1>   0.1170 
 23 C        6.0680     2.5580    -0.7890 C.ar  1 <1>  -0.1500 
 24 H        5.5510     2.5890    -1.7420 H     1 <1>   0.1500 
 25 C        7.4690     2.5320    -0.8030 C.ar  1 <1>  -0.1500 
 26 H        7.9950     2.5430    -1.7550 H     1 <1>   0.1500 
 27 C        8.1890     2.4930     0.3910 C.ar  1 <1>  -0.1500 
 28 H        9.2760     2.4730     0.3720 H     1 <1>   0.1500 
 29 C        7.5090     2.4790     1.6050 C.ar  1 <1>  -0.1500 
 30 H        8.0500     2.4480     2.5450 H     1 <1>   0.1500 
 31 C        6.1170     2.5050     1.6110 C.ar  1 <1>   0.1900 
 32 F        5.4800     2.4910     2.7930 F     1 <1>  -0.1900 
@<TRIPOS>BOND
  1   1   2  1   
  2   2   3  2   
  3   3   4  1   
  4   3  17  1   
  5   4   5  1   
  6   5   6  ar  
  7   5  14  ar  
  8   6   7  1   
  9   6   8  ar  
 10   8   9  1   
 11   8  10  ar  
 12  10  11  1   
 13  10  12  ar  
 14  12  13  1   
 15  12  14  ar  
 16  14  15  1   
 17  15  16  1   
 18  15  17  2   
 19  17  18  1   
 20  18  19  2   
 21  18  20  am  
 22  20  21  1   
 23  20  22  1   
 24  22  23  ar  
 25  22  31  ar  
 26  23  24  1   
 27  23  25  ar  
 28  25  26  1   
 29  25  27  ar  
 30  27  28  1   
 31  27  29  ar  
 32  29  30  1   
 33  29  31  ar  
 34  31  32  1   
@<TRIPOS>SUBSTRUCTURE
  1 ****  17 GROUP 4 **** **** 0

# MOE 2022.02 (io_trps.svl 2020.11)

@<TRIPOS>MOLECULE
CEP117
36 37 1 0 0 
SMALL
USER_CHARGES


@<TRIPOS>ATOM
  1 H      -10.1490     4.5840    -0.1220 H     1 <1>   0.1500 
  2 C       -9.0820     4.7710    -0.0480 C.ar  1 <1>  -0.1500 
  3 C       -8.2490     3.8340     0.5560 C.ar  1 <1>  -0.1500 
  4 H       -8.6640     2.9140     0.9580 H     1 <1>   0.1500 
  5 C       -6.8730     4.0730     0.6450 C.ar  1 <1>  -0.1500 
  6 H       -6.2580     3.3210     1.1330 H     1 <1>   0.1500 
  7 C       -6.3070     5.2580     0.1510 C.ar  1 <1>   0.1170 
  8 N       -4.9120     5.4730     0.2420 N.am  1 <1>  -0.1570 
  9 C       -3.9200     4.4900     0.2660 C.2   1 <1>   0.6160 
 10 O       -3.9950     3.2700     0.3070 O.2   1 <1>  -0.5700 
 11 C       -2.6000     5.2040     0.1380 C.2   1 <1>   0.1230 
 12 N       -1.4530     4.4640     0.0720 N.am  1 <1>  -0.5390 
 13 H       -1.6000     3.4520     0.0220 H     1 <1>   0.3700 
 14 C       -0.1400     4.8650     0.0860 C.2   1 <1>   0.6300 
 15 O        0.3210     5.9890     0.2140 O.2   1 <1>  -0.5700 
 16 C        0.8340     3.6800    -0.0540 C.2   1 <1>   0.6300 
 17 O        0.4080     2.5360    -0.1560 O.2   1 <1>  -0.5700 
 18 N        2.1670     4.0570    -0.0510 N.am  1 <1>  -0.4210 
 19 H        2.3950     5.0490     0.0370 H     1 <1>   0.3700 
 20 N        3.1900     3.0930    -0.1710 N.3   1 <1>  -0.7290 
 21 H        2.8980     2.4200    -0.8890 H     1 <1>   0.3600 
 22 H        3.2000     2.5390     0.6910 H     1 <1>   0.3600 
 23 C       -2.8970     6.5160     0.1060 C.2   1 <1>  -0.0380 
 24 C       -1.9760     7.6730    -0.1000 C.3   1 <1>   0.1380 
 25 H       -1.2240     7.4520    -0.8630 H     1 <1>   0.0000 
 26 H       -1.4870     7.9510     0.8380 H     1 <1>   0.0000 
 27 H       -2.5140     8.5510    -0.4730 H     1 <1>   0.0000 
 28 N       -4.2640     6.7200     0.2870 N.pl3 1 <1>  -0.4890 
 29 C       -4.9240     7.9650     0.6200 C.3   1 <1>   0.3690 
 30 H       -4.2640     8.6050     1.2150 H     1 <1>   0.0000 
 31 H       -5.8180     7.8090     1.2330 H     1 <1>   0.0000 
 32 H       -5.1910     8.5160    -0.2870 H     1 <1>   0.0000 
 33 C       -7.1610     6.1750    -0.4780 C.ar  1 <1>  -0.1500 
 34 H       -6.7680     7.0630    -0.9600 H     1 <1>   0.1500 
 35 C       -8.5370     5.9390    -0.5710 C.ar  1 <1>  -0.1500 
 36 H       -9.1780     6.6610    -1.0700 H     1 <1>   0.1500 
@<TRIPOS>BOND
  1   1   2  1   
  2   2   3  ar  
  3   2  35  ar  
  4   3   4  1   
  5   3   5  ar  
  6   5   6  1   
  7   5   7  ar  
  8   7   8  1   
  9   7  33  ar  
 10   8   9  am  
 11   8  28  1   
 12   9  10  2   
 13   9  11  1   
 14  11  12  1   
 15  11  23  2   
 16  12  13  1   
 17  12  14  am  
 18  14  15  2   
 19  14  16  1   
 20  16  17  2   
 21  16  18  am  
 22  18  19  1   
 23  18  20  1   
 24  20  21  1   
 25  20  22  1   
 26  23  24  1   
 27  23  28  1   
 28  24  25  1   
 29  24  26  1   
 30  24  27  1   
 31  28  29  1   
 32  29  30  1   
 33  29  31  1   
 34  29  32  1   
 35  33  34  1   
 36  33  35  ar  
 37  35  36  1   
@<TRIPOS>SUBSTRUCTURE
  1 ****  11 GROUP 4 **** **** 0

# MOE 2022.02 (io_trps.svl 2020.11)

@<TRIPOS>MOLECULE
CEP118
38 40 1 0 0 
SMALL
USER_CHARGES


@<TRIPOS>ATOM
  1 H        2.7590    -1.9390     0.1780 H     1 <1>   0.4500 
  2 O        2.0090    -1.4620     0.5680 O.3   1 <1>  -0.5270 
  3 C        1.9530    -0.2000     0.0000 C.2   1 <1>   0.0480 
  4 C        0.7720     0.3940    -0.2730 C.2   1 <1>  -0.0140 
  5 C       -0.5140    -0.2670     0.0430 C.ar  1 <1>   0.0280 
  6 C       -0.8850    -1.4630    -0.5890 C.ar  1 <1>  -0.1500 
  7 H       -0.2240    -1.9240    -1.3190 H     1 <1>   0.1500 
  8 C       -2.1040    -2.0760    -0.2900 C.ar  1 <1>  -0.1500 
  9 H       -2.3800    -3.0040    -0.7840 H     1 <1>   0.1500 
 10 C       -2.9660    -1.4980     0.6390 C.ar  1 <1>  -0.1500 
 11 H       -3.9160    -1.9730     0.8700 H     1 <1>   0.1500 
 12 C       -2.6110    -0.3070     1.2710 C.ar  1 <1>  -0.1500 
 13 H       -3.2840     0.1490     1.9920 H     1 <1>   0.1500 
 14 C       -1.3910     0.3060     0.9730 C.ar  1 <1>  -0.1500 
 15 H       -1.1330     1.2400     1.4680 H     1 <1>   0.1500 
 16 C        0.7650     1.7430    -0.9300 C.2   1 <1>   0.6160 
 17 O       -0.2710     2.3480    -1.1930 O.2   1 <1>  -0.5700 
 18 N        1.9760     2.2920    -1.2530 N.am  1 <1>  -0.5470 
 19 H        1.9350     3.1880    -1.7180 H     1 <1>   0.3700 
 20 C        3.2050     1.6960    -0.9680 C.ar  1 <1>   0.1170 
 21 C        4.3790     2.3620    -1.3180 C.ar  1 <1>  -0.1500 
 22 H        4.3460     3.3180    -1.8340 H     1 <1>   0.1500 
 23 C        5.6150     1.8050    -0.9930 C.ar  1 <1>  -0.1500 
 24 H        6.5230     2.3390    -1.2690 H     1 <1>   0.1500 
 25 C        5.6890     0.5880    -0.3040 C.ar  1 <1>  -0.1440 
 26 C        7.0470     0.0180     0.0700 C.3   1 <1>   0.1440 
 27 H        7.8260     0.6760    -0.3370 H     1 <1>   0.0000 
 28 C        7.2700    -1.3670    -0.5430 C.3   1 <1>   0.0000 
 29 H        6.5760    -2.1120    -0.1400 H     1 <1>   0.0000 
 30 H        7.1370    -1.3400    -1.6300 H     1 <1>   0.0000 
 31 H        8.2880    -1.7180    -0.3390 H     1 <1>   0.0000 
 32 C        7.2380    -0.0200     1.5880 C.3   1 <1>   0.0000 
 33 H        8.2490    -0.3570     1.8410 H     1 <1>   0.0000 
 34 H        7.0980     0.9750     2.0250 H     1 <1>   0.0000 
 35 H        6.5290    -0.7000     2.0730 H     1 <1>   0.0000 
 36 C        4.4920    -0.0700     0.0390 C.ar  1 <1>  -0.1500 
 37 H        4.5560    -0.9940     0.6060 H     1 <1>   0.1500 
 38 C        3.2390     0.4610    -0.3100 C.ar  1 <1>   0.0280 
@<TRIPOS>BOND
  1   1   2  1   
  2   2   3  1   
  3   3   4  2   
  4   3  38  1   
  5   4   5  1   
  6   4  16  1   
  7   5   6  ar  
  8   5  14  ar  
  9   6   7  1   
 10   6   8  ar  
 11   8   9  1   
 12   8  10  ar  
 13  10  11  1   
 14  10  12  ar  
 15  12  13  1   
 16  12  14  ar  
 17  14  15  1   
 18  16  17  2   
 19  16  18  am  
 20  18  19  1   
 21  18  20  1   
 22  20  21  ar  
 23  20  38  ar  
 24  21  22  1   
 25  21  23  ar  
 26  23  24  1   
 27  23  25  ar  
 28  25  26  1   
 29  25  36  ar  
 30  26  27  1   
 31  26  28  1   
 32  26  32  1   
 33  28  29  1   
 34  28  30  1   
 35  28  31  1   
 36  32  33  1   
 37  32  34  1   
 38  32  35  1   
 39  36  37  1   
 40  36  38  ar  
@<TRIPOS>SUBSTRUCTURE
  1 ****   3 GROUP 4 **** **** 0

# MOE 2022.02 (io_trps.svl 2020.11)

@<TRIPOS>MOLECULE
CEP119
30 32 1 0 0 
SMALL
USER_CHARGES


@<TRIPOS>ATOM
  1 H        3.5120     1.3410     1.2430 H     1 <1>   0.1500 
  2 C        2.7540     2.0850     1.0320 C.2   1 <1>   0.0770 
  3 N        2.2800     2.9170     2.0070 N.2   1 <1>  -0.5650 
  4 C        1.3890     3.6770     1.4100 C.2   1 <1>   0.0370 
  5 H        0.8210     4.4530     1.9060 H     1 <1>   0.1500 
  6 N        1.2520     3.3790     0.0720 N.pl3 1 <1>   0.2940 
  7 C        0.4090     3.9670    -0.8810 C.2   1 <1>   0.5650 
  8 O        0.4260     3.5750    -2.0400 O.2   1 <1>  -0.5700 
  9 C       -0.4760     5.0480    -0.3870 C.2   1 <1>  -0.0140 
 10 C       -0.0580     6.3220    -0.5470 C.2   1 <1>  -0.1240 
 11 C        1.2260     6.7730    -1.1870 C.3   1 <1>   0.1380 
 12 H        1.8410     5.9480    -1.5570 H     1 <1>   0.0000 
 13 H        1.8330     7.3300    -0.4650 H     1 <1>   0.0000 
 14 H        1.0150     7.4260    -2.0410 H     1 <1>   0.0000 
 15 C       -0.9160     7.4420    -0.0470 C.2   1 <1>   0.6160 
 16 O       -0.5650     8.6130    -0.1490 O.2   1 <1>  -0.5700 
 17 N       -2.1020     7.1120     0.5420 N.am  1 <1>  -0.5470 
 18 H       -2.6560     7.8920     0.8740 H     1 <1>   0.3700 
 19 C       -2.5650     5.8040     0.6930 C.ar  1 <1>   0.1170 
 20 C       -3.8020     5.5820     1.2990 C.ar  1 <1>  -0.1500 
 21 H       -4.4060     6.4100     1.6610 H     1 <1>   0.1500 
 22 C       -4.2760     4.2790     1.4380 C.ar  1 <1>  -0.1500 
 23 H       -5.2410     4.0980     1.9060 H     1 <1>   0.1500 
 24 C       -3.5180     3.2090     0.9680 C.ar  1 <1>  -0.1500 
 25 H       -3.8940     2.1930     1.0690 H     1 <1>   0.1500 
 26 C       -2.2780     3.4360     0.3630 C.ar  1 <1>  -0.1500 
 27 H       -1.7250     2.5740    -0.0020 H     1 <1>   0.1500 
 28 C       -1.7830     4.7410     0.2260 C.ar  1 <1>   0.0280 
 29 C        2.1410     2.3480    -0.1670 C.2   1 <1>  -0.3020 
 30 H        2.2460     1.9110    -1.1510 H     1 <1>   0.1500 
@<TRIPOS>BOND
  1   1   2  1   
  2   2   3  1   
  3   2  29  2   
  4   3   4  2   
  5   4   5  1   
  6   4   6  1   
  7   6   7  1   
  8   6  29  1   
  9   7   8  2   
 10   7   9  1   
 11   9  10  2   
 12   9  28  1   
 13  10  11  1   
 14  10  15  1   
 15  11  12  1   
 16  11  13  1   
 17  11  14  1   
 18  15  16  2   
 19  15  17  am  
 20  17  18  1   
 21  17  19  1   
 22  19  20  ar  
 23  19  28  ar  
 24  20  21  1   
 25  20  22  ar  
 26  22  23  1   
 27  22  24  ar  
 28  24  25  1   
 29  24  26  ar  
 30  26  27  1   
 31  26  28  ar  
 32  29  30  1   
@<TRIPOS>SUBSTRUCTURE
  1 ****   9 GROUP 4 **** **** 0

# MOE 2022.02 (io_trps.svl 2020.11)

@<TRIPOS>MOLECULE
CEP120
41 43 1 0 0 
SMALL
USER_CHARGES


@<TRIPOS>ATOM
  1 H      -10.7950     4.9830    -1.0410 H     1 <1>   0.1500 
  2 C       -9.7340     5.0500    -0.8140 C.ar  1 <1>  -0.1500 
  3 C       -9.0270     6.2080    -1.1170 C.ar  1 <1>  -0.1500 
  4 H       -9.5320     7.0500    -1.5840 H     1 <1>   0.1500 
  5 C       -7.6610     6.2950    -0.8250 C.ar  1 <1>  -0.1500 
  6 H       -7.1570     7.2220    -1.0830 H     1 <1>   0.1500 
  7 C       -6.9730     5.2310    -0.2230 C.ar  1 <1>   0.1170 
  8 N       -5.5900     5.3300     0.0680 N.am  1 <1>  -0.1570 
  9 C       -4.7110     6.4120    -0.1630 C.2   1 <1>   0.6160 
 10 O       -4.9240     7.5070    -0.6540 O.2   1 <1>  -0.5700 
 11 C       -3.3760     5.9340     0.3510 C.2   1 <1>   0.0140 
 12 C       -2.1730     6.5330     0.3950 C.2   1 <1>  -0.0290 
 13 C       -1.9270     7.9220    -0.1340 C.3   1 <1>   0.1380 
 14 H       -1.0750     7.9350    -0.8220 H     1 <1>   0.0000 
 15 H       -1.7260     8.6140     0.6910 H     1 <1>   0.0000 
 16 H       -2.7650     8.3310    -0.6990 H     1 <1>   0.0000 
 17 N       -1.0940     5.8210     0.9660 N.am  1 <1>  -0.4690 
 18 C        0.2510     6.4040     1.0570 C.3   1 <1>   0.3000 
 19 H        0.7310     6.0370     1.9730 H     1 <1>   0.0000 
 20 H        0.1900     7.4900     1.1750 H     1 <1>   0.0000 
 21 C        1.1200     6.0240    -0.1450 C.3   1 <1>   0.0000 
 22 H        0.6370     6.3460    -1.0750 H     1 <1>   0.0000 
 23 H        1.2110     4.9320    -0.2060 H     1 <1>   0.0000 
 24 C        2.5100     6.6500    -0.0430 C.3   1 <1>   0.0000 
 25 H        3.0000     6.3190     0.8790 H     1 <1>   0.0000 
 26 H        2.4230     7.7420     0.0080 H     1 <1>   0.0000 
 27 C        3.3790     6.2740    -1.2330 C.3   1 <1>   0.0000 
 28 H        2.9310     6.6190    -2.1710 H     1 <1>   0.0000 
 29 H        3.5120     5.1890    -1.2940 H     1 <1>   0.0000 
 30 H        4.3680     6.7330    -1.1390 H     1 <1>   0.0000 
 31 C       -1.2320     4.5160     1.4700 C.2   1 <1>   0.6160 
 32 O       -0.3190     3.8560     1.9610 O.2   1 <1>  -0.5700 
 33 C       -2.5780     3.8990     1.3930 C.2   1 <1>  -0.1360 
 34 H       -2.6860     2.8970     1.7820 H     1 <1>   0.1500 
 35 C       -3.5760     4.5980     0.8580 C.2   1 <1>   0.1000 
 36 N       -4.8860     4.2850     0.6670 N.pl3 1 <1>  -0.5200 
 37 H       -5.2900     3.4000     0.9310 H     1 <1>   0.4000 
 38 C       -7.7080     4.0710     0.0750 C.ar  1 <1>  -0.1500 
 39 H       -7.2500     3.2060     0.5400 H     1 <1>   0.1500 
 40 C       -9.0750     3.9820    -0.2170 C.ar  1 <1>  -0.1500 
 41 H       -9.6240     3.0740     0.0230 H     1 <1>   0.1500 
@<TRIPOS>BOND
  1   1   2  1   
  2   2   3  ar  
  3   2  40  ar  
  4   3   4  1   
  5   3   5  ar  
  6   5   6  1   
  7   5   7  ar  
  8   7   8  1   
  9   7  38  ar  
 10   8   9  am  
 11   8  36  1   
 12   9  10  2   
 13   9  11  1   
 14  11  12  2   
 15  11  35  1   
 16  12  13  1   
 17  12  17  1   
 18  13  14  1   
 19  13  15  1   
 20  13  16  1   
 21  17  18  1   
 22  17  31  am  
 23  18  19  1   
 24  18  20  1   
 25  18  21  1   
 26  21  22  1   
 27  21  23  1   
 28  21  24  1   
 29  24  25  1   
 30  24  26  1   
 31  24  27  1   
 32  27  28  1   
 33  27  29  1   
 34  27  30  1   
 35  31  32  2   
 36  31  33  1   
 37  33  34  1   
 38  33  35  2   
 39  35  36  1   
 40  36  37  1   
 41  38  39  1   
 42  38  40  ar  
 43  40  41  1   
@<TRIPOS>SUBSTRUCTURE
  1 ****  11 GROUP 4 **** **** 0

# MOE 2022.02 (io_trps.svl 2020.11)

@<TRIPOS>MOLECULE
CEP121
36 36 1 0 0 
SMALL
USER_CHARGES


@<TRIPOS>ATOM
  1 H        6.6960    -5.3710     0.4890 H     1 <1>   0.1500 
  2 C        7.3970    -4.7410    -0.0420 C.2   1 <1>  -0.1360 
  3 C        6.9890    -3.3510    -0.3990 C.2   1 <1>   0.6160 
  4 O        7.7740    -2.5740    -0.9260 O.2   1 <1>  -0.5700 
  5 N        5.6650    -3.1060    -0.0890 N.am  1 <1>  -0.5470 
  6 H        5.1260    -3.8800     0.2660 H     1 <1>   0.3700 
  7 C        4.9820    -1.8660    -0.2000 C.ar  1 <1>   0.1170 
  8 C        5.6820    -0.6550    -0.3110 C.ar  1 <1>  -0.1500 
  9 H        6.7670    -0.6270    -0.3720 H     1 <1>   0.1500 
 10 C        5.0100     0.5680    -0.2940 C.ar  1 <1>  -0.1500 
 11 H        5.5860     1.4890    -0.3730 H     1 <1>   0.1500 
 12 C        3.6210     0.5850    -0.1660 C.ar  1 <1>   0.1330 
 13 N        2.9140     1.8700    -0.1520 N.pl3 1 <1>   0.9070 
 14 O        1.6910     1.8610    -0.3450 O.2   1 <1>  -0.5200 
 15 O        3.5870     2.8920     0.0450 O.2   1 <1>  -0.5200 
 16 C        2.8970    -0.6100    -0.0700 C.ar  1 <1>  -0.1500 
 17 H        1.8130    -0.5650    -0.0120 H     1 <1>   0.1500 
 18 C        3.5670    -1.8430    -0.1010 C.ar  1 <1>   0.1170 
 19 N        2.8540    -3.0710    -0.1250 N.am  1 <1>  -0.5470 
 20 H        3.3690    -3.8780    -0.4430 H     1 <1>   0.3700 
 21 C        1.5320    -3.2660     0.2260 C.2   1 <1>   0.6160 
 22 O        0.7820    -2.4410     0.7290 O.2   1 <1>  -0.5700 
 23 C        1.0830    -4.6630    -0.0440 C.2   1 <1>  -0.1360 
 24 H        1.7540    -5.3360    -0.5630 H     1 <1>   0.1500 
 25 C       -0.1390    -5.0680     0.3350 C.2   1 <1>  -0.2880 
 26 H       -0.8050    -4.3750     0.8480 H     1 <1>   0.1500 
 27 C       -0.6780    -6.4400     0.0950 C.3   1 <1>   0.1380 
 28 H       -1.5900    -6.3820    -0.5060 H     1 <1>   0.0000 
 29 H       -0.9240    -6.9150     1.0500 H     1 <1>   0.0000 
 30 H        0.0380    -7.0800    -0.4300 H     1 <1>   0.0000 
 31 C        8.6230    -5.1900    -0.3560 C.2   1 <1>  -0.2880 
 32 H        9.3210    -4.5400    -0.8830 H     1 <1>   0.1500 
 33 C        9.1240    -6.5580    -0.0250 C.3   1 <1>   0.1380 
 34 H        8.3750    -7.1550     0.5050 H     1 <1>   0.0000 
 35 H        9.3960    -7.0870    -0.9430 H     1 <1>   0.0000 
 36 H       10.0130    -6.4850     0.6080 H     1 <1>   0.0000 
@<TRIPOS>BOND
  1   1   2  1   
  2   2   3  1   
  3   2  31  2   
  4   3   4  2   
  5   3   5  am  
  6   5   6  1   
  7   5   7  1   
  8   7   8  ar  
  9   7  18  ar  
 10   8   9  1   
 11   8  10  ar  
 12  10  11  1   
 13  10  12  ar  
 14  12  13  1   
 15  12  16  ar  
 16  13  14  2   
 17  13  15  2   
 18  16  17  1   
 19  16  18  ar  
 20  18  19  1   
 21  19  20  1   
 22  19  21  am  
 23  21  22  2   
 24  21  23  1   
 25  23  24  1   
 26  23  25  2   
 27  25  26  1   
 28  25  27  1   
 29  27  28  1   
 30  27  29  1   
 31  27  30  1   
 32  31  32  1   
 33  31  33  1   
 34  33  34  1   
 35  33  35  1   
 36  33  36  1   
@<TRIPOS>SUBSTRUCTURE
  1 ****  18 GROUP 4 **** **** 0

# MOE 2022.02 (io_trps.svl 2020.11)

@<TRIPOS>MOLECULE
CEP122
31 33 1 0 0 
SMALL
USER_CHARGES


@<TRIPOS>ATOM
  1 H        3.2200    -6.0480    -0.0870 H     1 <1>   0.1500 
  2 C        2.1540    -5.8350    -0.1130 C.ar  1 <1>  -0.1500 
  3 C        1.6320    -4.7890     0.6510 C.ar  1 <1>  -0.1500 
  4 H        2.2930    -4.1870     1.2700 H     1 <1>   0.1500 
  5 C        0.2610    -4.5040     0.6250 C.ar  1 <1>  -0.1500 
  6 H       -0.1000    -3.6780     1.2310 H     1 <1>   0.1500 
  7 C       -0.5990    -5.2650    -0.1670 C.ar  1 <1>   0.1170 
  8 N       -1.9930    -5.0600    -0.2600 N.am  1 <1>  -0.5470 
  9 H       -2.4680    -5.6920    -0.8980 H     1 <1>   0.3700 
 10 C       -2.7470    -4.1140     0.4040 C.2   1 <1>   0.6160 
 11 O       -2.3570    -3.2780     1.2080 O.2   1 <1>  -0.5700 
 12 C       -4.1900    -4.2240     0.0940 C.2   1 <1>   0.0290 
 13 C       -4.8610    -5.2360     0.6630 C.2   1 <1>  -0.1780 
 14 H       -4.3730    -5.9510     1.3200 H     1 <1>   0.1500 
 15 C       -6.2890    -5.3720     0.4280 C.ar  1 <1>   0.0280 
 16 C       -7.0360    -6.4150     0.9780 C.ar  1 <1>  -0.1500 
 17 H       -6.5660    -7.1710     1.6040 H     1 <1>   0.1500 
 18 C       -8.4100    -6.4960     0.7290 C.ar  1 <1>  -0.1500 
 19 H       -8.9920    -7.3080     1.1600 H     1 <1>   0.1500 
 20 C       -9.0410    -5.5380    -0.0670 C.ar  1 <1>  -0.1500 
 21 H      -10.1100    -5.6050    -0.2560 H     1 <1>   0.1500 
 22 C       -8.3010    -4.4940    -0.6190 C.ar  1 <1>  -0.1500 
 23 H       -8.7840    -3.7450    -1.2400 H     1 <1>   0.1500 
 24 C       -6.9340    -4.4260    -0.3630 C.ar  1 <1>   0.0820 
 25 O       -6.2190    -3.3600    -0.9430 O.3   1 <1>  -0.2320 
 26 C       -4.8430    -3.2230    -0.7700 C.2   1 <1>   0.7060 
 27 O       -4.2170    -2.3390    -1.3420 O.2   1 <1>  -0.5700 
 28 C       -0.0560    -6.3100    -0.9270 C.ar  1 <1>   0.1900 
 29 F       -0.8680    -7.0570    -1.6930 F     1 <1>  -0.1900 
 30 C        1.3050    -6.6000    -0.9070 C.ar  1 <1>  -0.1500 
 31 H        1.6920    -7.4170    -1.5080 H     1 <1>   0.1500 
@<TRIPOS>BOND
  1   1   2  1   
  2   2   3  ar  
  3   2  30  ar  
  4   3   4  1   
  5   3   5  ar  
  6   5   6  1   
  7   5   7  ar  
  8   7   8  1   
  9   7  28  ar  
 10   8   9  1   
 11   8  10  am  
 12  10  11  2   
 13  10  12  1   
 14  12  13  2   
 15  12  26  1   
 16  13  14  1   
 17  13  15  1   
 18  15  16  ar  
 19  15  24  ar  
 20  16  17  1   
 21  16  18  ar  
 22  18  19  1   
 23  18  20  ar  
 24  20  21  1   
 25  20  22  ar  
 26  22  23  1   
 27  22  24  ar  
 28  24  25  1   
 29  25  26  1   
 30  26  27  2   
 31  28  29  1   
 32  28  30  ar  
 33  30  31  1   
@<TRIPOS>SUBSTRUCTURE
  1 ****  12 GROUP 4 **** **** 0

# MOE 2022.02 (io_trps.svl 2020.11)

@<TRIPOS>MOLECULE
CEP123
38 39 1 0 0 
SMALL
USER_CHARGES


@<TRIPOS>ATOM
  1 H        4.9000    -0.8930     2.3900 H     1 <1>   0.4000 
  2 O        4.3150    -0.2420     1.9690 O.3   1 <1>  -0.6800 
  3 C        4.2010    -0.7370     0.6560 C.3   1 <1>   0.6940 
  4 H        4.1650     0.1100    -0.0400 H     1 <1>   0.0000 
  5 C        2.8890    -1.4940     0.5760 C.ar  1 <1>  -0.1440 
  6 C        2.7580    -2.7960     1.0910 C.ar  1 <1>  -0.1500 
  7 H        3.6130    -3.2910     1.5500 H     1 <1>   0.1500 
  8 C        1.5360    -3.4740     1.0310 C.ar  1 <1>  -0.1500 
  9 H        1.4550    -4.4820     1.4300 H     1 <1>   0.1500 
 10 C        0.4160    -2.8660     0.4700 C.ar  1 <1>   0.1790 
 11 N       -0.7950    -3.5810     0.4310 N.2   1 <1>  -0.6290 
 12 C       -1.8350    -2.9910    -0.0820 C.2   1 <1>   0.3890 
 13 C       -3.1530    -3.7050    -0.1480 C.3   1 <1>   0.0610 
 14 H       -3.9070    -3.1340     0.4010 H     1 <1>   0.0000 
 15 H       -3.4620    -3.8060    -1.1910 H     1 <1>   0.0000 
 16 H       -3.0700    -4.7010     0.2950 H     1 <1>   0.0000 
 17 C       -1.8000    -1.5720    -0.6430 C.2   1 <1>   0.6300 
 18 O       -2.8060    -1.0630    -1.1160 O.2   1 <1>  -0.5700 
 19 N       -0.5870    -0.9350    -0.5770 N.am  1 <1>  -0.5470 
 20 H       -0.5380     0.0060    -0.9400 H     1 <1>   0.3700 
 21 C        0.5370    -1.5600    -0.0270 C.ar  1 <1>   0.1170 
 22 C        1.7540    -0.8760     0.0240 C.ar  1 <1>  -0.1500 
 23 H        1.8250     0.1410    -0.3520 H     1 <1>   0.1500 
 24 N        5.3500    -1.5810     0.3740 N.3   1 <1>  -0.9000 
 25 H        5.1630    -2.0780    -0.4970 H     1 <1>   0.3600 
 26 C        6.5740    -0.7910     0.2010 C.3   1 <1>   0.2700 
 27 H        6.4490    -0.0680    -0.6140 H     1 <1>   0.0000 
 28 H        6.8040    -0.2360     1.1170 H     1 <1>   0.0000 
 29 C        7.7400    -1.7280    -0.1250 C.3   1 <1>   0.0000 
 30 H        7.8610    -2.4630     0.6810 H     1 <1>   0.0000 
 31 H        7.5230    -2.2880    -1.0440 H     1 <1>   0.0000 
 32 C        9.0430    -0.9480    -0.3030 C.3   1 <1>   0.0000 
 33 H        8.9330    -0.2170    -1.1130 H     1 <1>   0.0000 
 34 H        9.2690    -0.3870     0.6120 H     1 <1>   0.0000 
 35 C       10.2070    -1.8730    -0.6210 C.3   1 <1>   0.0000 
 36 H       10.0260    -2.4270    -1.5480 H     1 <1>   0.0000 
 37 H       10.3650    -2.5960     0.1860 H     1 <1>   0.0000 
 38 H       11.1280    -1.2960    -0.7450 H     1 <1>   0.0000 
@<TRIPOS>BOND
  1   1   2  1   
  2   2   3  1   
  3   3   4  1   
  4   3   5  1   
  5   3  24  1   
  6   5   6  ar  
  7   5  22  ar  
  8   6   7  1   
  9   6   8  ar  
 10   8   9  1   
 11   8  10  ar  
 12  10  11  1   
 13  10  21  ar  
 14  11  12  2   
 15  12  13  1   
 16  12  17  1   
 17  13  14  1   
 18  13  15  1   
 19  13  16  1   
 20  17  18  2   
 21  17  19  am  
 22  19  20  1   
 23  19  21  1   
 24  21  22  ar  
 25  22  23  1   
 26  24  25  1   
 27  24  26  1   
 28  26  27  1   
 29  26  28  1   
 30  26  29  1   
 31  29  30  1   
 32  29  31  1   
 33  29  32  1   
 34  32  33  1   
 35  32  34  1   
 36  32  35  1   
 37  35  36  1   
 38  35  37  1   
 39  35  38  1   
@<TRIPOS>SUBSTRUCTURE
  1 ****   5 GROUP 4 **** **** 0

# MOE 2022.02 (io_trps.svl 2020.11)

@<TRIPOS>MOLECULE
CEP124
40 40 1 0 0 
SMALL
USER_CHARGES


@<TRIPOS>ATOM
  1 H       -1.7420     6.6560    -0.5360 H     1 <1>   0.1500 
  2 C       -2.2530     5.7040    -0.4150 C.ar  1 <1>  -0.1500 
  3 C       -1.5240     4.5200    -0.4350 C.ar  1 <1>  -0.1500 
  4 H       -0.4470     4.5890    -0.5500 H     1 <1>   0.1500 
  5 C       -2.1670     3.2920    -0.2520 C.ar  1 <1>   0.1170 
  6 N       -1.4360     2.0830    -0.1240 N.am  1 <1>  -0.5470 
  7 H       -1.9390     1.3050     0.2660 H     1 <1>   0.3700 
  8 C       -0.1210     1.8560    -0.4620 C.2   1 <1>   0.6900 
  9 O        0.6210     2.6240    -1.0610 O.2   1 <1>  -0.5700 
 10 N        0.2910     0.6040    -0.0560 N.am  1 <1>  -0.7300 
 11 H       -0.3310     0.0120     0.4700 H     1 <1>   0.3700 
 12 C        1.6260     0.1310    -0.3570 C.3   1 <1>   0.3000 
 13 H        2.3440     0.8330     0.0810 H     1 <1>   0.0000 
 14 H        1.7580     0.1500    -1.4440 H     1 <1>   0.0000 
 15 C        1.8590    -1.2680     0.1800 C.3   1 <1>   0.0000 
 16 H        1.1480    -1.9770    -0.2550 H     1 <1>   0.0000 
 17 H        1.7360    -1.2950     1.2670 H     1 <1>   0.0000 
 18 H        2.8720    -1.6050    -0.0600 H     1 <1>   0.0000 
 19 C       -3.5780     3.2510    -0.0780 C.ar  1 <1>   0.1170 
 20 N       -4.1690     1.9610    -0.0240 N.am  1 <1>  -0.5470 
 21 H       -3.7090     1.2610    -0.5900 H     1 <1>   0.3700 
 22 C       -5.2600     1.5700     0.7240 C.2   1 <1>   0.5690 
 23 O       -5.7710     2.2220     1.6300 O.2   1 <1>  -0.5700 
 24 C       -5.7740     0.1690     0.3960 C.3   1 <1>   0.0610 
 25 H       -6.6730     0.0160     1.0060 H     1 <1>   0.0000 
 26 C       -6.1820     0.0490    -1.0700 C.3   1 <1>   0.0000 
 27 H       -5.3180     0.1040    -1.7420 H     1 <1>   0.0000 
 28 H       -6.8690     0.8550    -1.3490 H     1 <1>   0.0000 
 29 H       -6.6860    -0.9060    -1.2520 H     1 <1>   0.0000 
 30 C       -4.7510    -0.8960     0.7820 C.3   1 <1>   0.0000 
 31 H       -5.1800    -1.8980     0.6760 H     1 <1>   0.0000 
 32 H       -3.8540    -0.8480     0.1570 H     1 <1>   0.0000 
 33 H       -4.4350    -0.7710     1.8230 H     1 <1>   0.0000 
 34 C       -4.3210     4.4510    -0.0940 C.ar  1 <1>  -0.1440 
 35 C       -5.8220     4.5310    -0.0270 C.3   1 <1>   0.1440 
 36 H       -6.1850     5.4310    -0.5370 H     1 <1>   0.0000 
 37 H       -6.1570     4.5820     1.0120 H     1 <1>   0.0000 
 38 H       -6.2940     3.6900    -0.5430 H     1 <1>   0.0000 
 39 C       -3.6330     5.6700    -0.2330 C.ar  1 <1>  -0.1500 
 40 H       -4.1810     6.6110    -0.2310 H     1 <1>   0.1500 
@<TRIPOS>BOND
  1   1   2  1   
  2   2   3  ar  
  3   2  39  ar  
  4   3   4  1   
  5   3   5  ar  
  6   5   6  1   
  7   5  19  ar  
  8   6   7  1   
  9   6   8  am  
 10   8   9  2   
 11   8  10  am  
 12  10  11  1   
 13  10  12  1   
 14  12  13  1   
 15  12  14  1   
 16  12  15  1   
 17  15  16  1   
 18  15  17  1   
 19  15  18  1   
 20  19  20  1   
 21  19  34  ar  
 22  20  21  1   
 23  20  22  am  
 24  22  23  2   
 25  22  24  1   
 26  24  25  1   
 27  24  26  1   
 28  24  30  1   
 29  26  27  1   
 30  26  28  1   
 31  26  29  1   
 32  30  31  1   
 33  30  32  1   
 34  30  33  1   
 35  34  35  1   
 36  34  39  ar  
 37  35  36  1   
 38  35  37  1   
 39  35  38  1   
 40  39  40  1   
@<TRIPOS>SUBSTRUCTURE
  1 ****   5 GROUP 4 **** **** 0

# MOE 2022.02 (io_trps.svl 2020.11)

@<TRIPOS>MOLECULE
CEP125
33 35 1 0 0 
SMALL
USER_CHARGES


@<TRIPOS>ATOM
  1 H        5.5640     5.0620     0.5580 H     1 <1>   0.1500 
  2 C        4.5930     5.5450     0.4830 C.ar  1 <1>  -0.1500 
  3 C        4.0160     6.1350     1.6040 C.ar  1 <1>  -0.1500 
  4 H        4.5380     6.1120     2.5580 H     1 <1>   0.1500 
  5 C        2.7680     6.7550     1.5030 C.ar  1 <1>  -0.1500 
  6 H        2.3430     7.2040     2.3970 H     1 <1>   0.1500 
  7 C        2.0810     6.7890     0.2810 C.ar  1 <1>   0.1170 
  8 N        0.8270     7.4380     0.2680 N.am  1 <1>  -0.5470 
  9 H        0.5470     7.8450     1.1550 H     1 <1>   0.3700 
 10 C       -0.0520     7.5580    -0.8020 C.2   1 <1>   0.5690 
 11 O        0.0790     7.0210    -1.9010 O.2   1 <1>  -0.5700 
 12 C       -1.2850     8.3980    -0.4830 C.3   1 <1>   0.4410 
 13 H       -1.1060     8.9900     0.4220 H     1 <1>   0.0000 
 14 C       -1.5870     9.3140    -1.5900 C.1   1 <1>   0.3570 
 15 N       -1.8350    10.0520    -2.4530 N.1   1 <1>  -0.5570 
 16 C       -2.4270     7.4630    -0.2360 C.2   1 <1>   0.0070 
 17 N       -3.1360     7.3860     0.8740 N.2   1 <1>  -0.5650 
 18 C       -4.0590     6.3910     0.6550 C.ar  1 <1>   0.2270 
 19 C       -5.0650     5.8990     1.4990 C.ar  1 <1>  -0.1500 
 20 H       -5.2010     6.3180     2.4890 H     1 <1>   0.1500 
 21 C       -5.8820     4.8610     1.0330 C.ar  1 <1>  -0.1500 
 22 H       -6.6670     4.4690     1.6770 H     1 <1>   0.1500 
 23 C       -5.7020     4.3250    -0.2440 C.ar  1 <1>  -0.1500 
 24 H       -6.3500     3.5180    -0.5820 H     1 <1>   0.1500 
 25 C       -4.7030     4.8050    -1.1000 C.ar  1 <1>  -0.1500 
 26 H       -4.5640     4.3880    -2.0920 H     1 <1>   0.1500 
 27 C       -3.9040     5.8400    -0.6110 C.ar  1 <1>  -0.1520 
 28 N       -2.8560     6.5320    -1.1590 N.pl3 1 <1>   0.0330 
 29 H       -2.4610     6.3820    -2.0800 H     1 <1>   0.2700 
 30 C        2.6700     6.1970    -0.8380 C.ar  1 <1>  -0.1500 
 31 H        2.1890     6.2000    -1.8100 H     1 <1>   0.1500 
 32 C        3.9200     5.5770    -0.7360 C.ar  1 <1>  -0.1500 
 33 H        4.3680     5.1190    -1.6150 H     1 <1>   0.1500 
@<TRIPOS>BOND
  1   1   2  1   
  2   2   3  ar  
  3   2  32  ar  
  4   3   4  1   
  5   3   5  ar  
  6   5   6  1   
  7   5   7  ar  
  8   7   8  1   
  9   7  30  ar  
 10   8   9  1   
 11   8  10  am  
 12  10  11  2   
 13  10  12  1   
 14  12  13  1   
 15  12  14  1   
 16  12  16  1   
 17  14  15  3   
 18  16  17  2   
 19  16  28  1   
 20  17  18  1   
 21  18  19  ar  
 22  18  27  ar  
 23  19  20  1   
 24  19  21  ar  
 25  21  22  1   
 26  21  23  ar  
 27  23  24  1   
 28  23  25  ar  
 29  25  26  1   
 30  25  27  ar  
 31  27  28  1   
 32  28  29  1   
 33  30  31  1   
 34  30  32  ar  
 35  32  33  1   
@<TRIPOS>SUBSTRUCTURE
  1 ****  10 GROUP 4 **** **** 0

# MOE 2022.02 (io_trps.svl 2020.11)

@<TRIPOS>MOLECULE
CEP126
28 29 1 0 0 
SMALL
USER_CHARGES


@<TRIPOS>ATOM
  1 H        1.1390    -6.4300    -0.9640 H     1 <1>   0.5000 
  2 O        1.5370    -5.5450    -1.1000 O.3   1 <1>  -0.6500 
  3 C        1.6940    -5.0390     0.1270 C.2   1 <1>   0.7200 
  4 O        1.3160    -5.5820     1.1420 O.2   1 <1>  -0.5700 
  5 C        2.3630    -3.6720     0.0880 C.2   1 <1>   0.4360 
  6 N        3.6490    -3.6640    -0.0260 N.2   1 <1>  -0.5120 
  7 N        4.3090    -2.4540    -0.0650 N.am  1 <1>  -0.1150 
  8 C        5.7410    -2.5910    -0.1960 C.ar  1 <1>   0.1170 
  9 C        6.6210    -1.4980    -0.2240 C.ar  1 <1>  -0.1500 
 10 H        6.2770    -0.4730    -0.1440 H     1 <1>   0.1500 
 11 C        8.0080    -1.6740    -0.3550 C.ar  1 <1>  -0.1500 
 12 H        8.6570    -0.8020    -0.3720 H     1 <1>   0.1500 
 13 C        8.5420    -2.9520    -0.4600 C.ar  1 <1>   0.1770 
 14 CL      10.2400    -3.1650    -0.6200 Cl    1 <1>  -0.1770 
 15 C        7.7020    -4.0560    -0.4350 C.ar  1 <1>  -0.1500 
 16 H        8.1070    -5.0610    -0.5160 H     1 <1>   0.1500 
 17 C        6.3190    -3.8750    -0.3040 C.ar  1 <1>  -0.1500 
 18 H        5.6990    -4.7680    -0.2900 H     1 <1>   0.1500 
 19 C        3.6300    -1.2290     0.0170 C.2   1 <1>   0.6160 
 20 O        4.1410    -0.1110    -0.0130 O.2   1 <1>  -0.5700 
 21 C        2.1420    -1.3090     0.1500 C.2   1 <1>   0.0790 
 22 C        1.4400    -0.0720     0.2340 C.1   1 <1>   0.4920 
 23 N        0.8060     0.8970     0.3060 N.1   1 <1>  -0.5570 
 24 C        1.4920    -2.4840     0.1870 C.2   1 <1>  -0.1240 
 25 C        0.0110    -2.6850     0.3110 C.3   1 <1>   0.1380 
 26 H       -0.5500    -1.7460     0.3390 H     1 <1>   0.0000 
 27 H       -0.3710    -3.2570    -0.5420 H     1 <1>   0.0000 
 28 H       -0.2270    -3.2270     1.2320 H     1 <1>   0.0000 
@<TRIPOS>BOND
  1   1   2  1   
  2   2   3  1   
  3   3   4  2   
  4   3   5  1   
  5   5   6  2   
  6   5  24  1   
  7   6   7  1   
  8   7   8  1   
  9   7  19  am  
 10   8   9  ar  
 11   8  17  ar  
 12   9  10  1   
 13   9  11  ar  
 14  11  12  1   
 15  11  13  ar  
 16  13  14  1   
 17  13  15  ar  
 18  15  16  1   
 19  15  17  ar  
 20  17  18  1   
 21  19  20  2   
 22  19  21  1   
 23  21  22  1   
 24  21  24  2   
 25  22  23  3   
 26  24  25  1   
 27  25  26  1   
 28  25  27  1   
 29  25  28  1   
@<TRIPOS>SUBSTRUCTURE
  1 ****   7 GROUP 4 **** **** 0

# MOE 2022.02 (io_trps.svl 2020.11)

@<TRIPOS>MOLECULE
CEP127
33 34 1 0 0 
SMALL
USER_CHARGES


@<TRIPOS>ATOM
  1 H        3.3920    -1.1130    -1.2330 H     1 <1>   0.4500 
  2 O        2.4670    -1.4330    -1.2820 O.3   1 <1>  -0.5270 
  3 C        1.6320    -0.4350    -0.8400 C.2   1 <1>   0.1770 
  4 C        1.9400     0.8700    -0.9550 C.2   1 <1>  -0.1240 
  5 C        3.1430     1.4260    -1.6480 C.3   1 <1>   0.1990 
  6 H        3.0230     2.4740    -1.9430 H     1 <1>   0.0000 
  7 H        3.3580     0.8740    -2.5700 H     1 <1>   0.0000 
  8 C        4.3110     1.2620    -0.7060 C.2   1 <1>   0.5690 
  9 O        4.9280     0.1990    -0.6480 O.2   1 <1>  -0.5700 
 10 N        4.5690     2.3540     0.0860 N.am  1 <1>  -0.7300 
 11 H        3.9670     3.1710     0.0110 H     1 <1>   0.3700 
 12 C        5.6460     2.3720     1.0550 C.3   1 <1>   0.3000 
 13 H        5.5870     1.4660     1.6690 H     1 <1>   0.0000 
 14 H        5.4740     3.2230     1.7240 H     1 <1>   0.0000 
 15 C        7.0300     2.4770     0.4150 C.3   1 <1>   0.2800 
 16 H        7.0700     3.3250    -0.2760 H     1 <1>   0.0000 
 17 H        7.2740     1.5660    -0.1420 H     1 <1>   0.0000 
 18 O        8.0150     2.6750     1.4230 O.3   1 <1>  -0.6800 
 19 H        8.8800     2.6590     0.9780 H     1 <1>   0.4000 
 20 C        1.0090     1.8610    -0.3340 C.2   1 <1>   0.4690 
 21 O        1.2890     3.0570    -0.3150 O.2   1 <1>  -0.5700 
 22 C       -0.2440     1.3540     0.2790 C.ar  1 <1>   0.0860 
 23 C       -1.1740     2.2390     0.8330 C.ar  1 <1>  -0.1500 
 24 H       -0.9920     3.3110     0.8170 H     1 <1>   0.1500 
 25 C       -2.3400     1.7370     1.4080 C.ar  1 <1>  -0.1500 
 26 H       -3.0690     2.4180     1.8420 H     1 <1>   0.1500 
 27 C       -2.5710     0.3600     1.4280 C.ar  1 <1>  -0.1500 
 28 H       -3.4810    -0.0290     1.8780 H     1 <1>   0.1500 
 29 C       -1.6370    -0.5210     0.8740 C.ar  1 <1>  -0.1500 
 30 H       -1.8330    -1.5890     0.9010 H     1 <1>   0.1500 
 31 C       -0.4640    -0.0310     0.2950 C.ar  1 <1>   0.1000 
 32 N        0.4860    -0.8890    -0.2590 N.pl3 1 <1>  -0.6000 
 33 H        0.3550    -1.8910    -0.2470 H     1 <1>   0.4000 
@<TRIPOS>BOND
  1   1   2  1   
  2   2   3  1   
  3   3   4  2   
  4   3  32  1   
  5   4   5  1   
  6   4  20  1   
  7   5   6  1   
  8   5   7  1   
  9   5   8  1   
 10   8   9  2   
 11   8  10  am  
 12  10  11  1   
 13  10  12  1   
 14  12  13  1   
 15  12  14  1   
 16  12  15  1   
 17  15  16  1   
 18  15  17  1   
 19  15  18  1   
 20  18  19  1   
 21  20  21  2   
 22  20  22  1   
 23  22  23  ar  
 24  22  31  ar  
 25  23  24  1   
 26  23  25  ar  
 27  25  26  1   
 28  25  27  ar  
 29  27  28  1   
 30  27  29  ar  
 31  29  30  1   
 32  29  31  ar  
 33  31  32  1   
 34  32  33  1   
@<TRIPOS>SUBSTRUCTURE
  1 ****   4 GROUP 4 **** **** 0

# MOE 2022.02 (io_trps.svl 2020.11)

@<TRIPOS>MOLECULE
CEP128
35 36 1 0 0 
SMALL
USER_CHARGES


@<TRIPOS>ATOM
  1 H        1.8420    -3.5560    -1.8970 H     1 <1>   0.4500 
  2 O        2.3250    -3.0160    -1.2480 O.3   1 <1>  -0.5270 
  3 C        1.3710    -2.3800    -0.4860 C.2   1 <1>   0.1770 
  4 C        1.6050    -1.1660     0.0590 C.2   1 <1>   0.0290 
  5 C        2.8690    -0.4030    -0.1790 C.2   1 <1>   0.6160 
  6 O        2.8590     0.8190    -0.3020 O.2   1 <1>  -0.5700 
  7 N        4.0070    -1.1930    -0.2510 N.am  1 <1>  -0.3680 
  8 H        3.9080    -2.2010    -0.2070 H     1 <1>   0.3700 
  9 N        5.2360    -0.6260    -0.3990 N.2   1 <1>  -0.5120 
 10 C        6.2750    -1.4000    -0.4850 C.2   1 <1>   0.3280 
 11 C        6.2350    -2.9080    -0.4190 C.3   1 <1>   0.0610 
 12 H        5.5990    -3.2960    -1.2190 H     1 <1>   0.0000 
 13 H        5.8430    -3.2230     0.5520 H     1 <1>   0.0000 
 14 H        7.2380    -3.3250    -0.5430 H     1 <1>   0.0000 
 15 C        7.6320    -0.7390    -0.6280 C.3   1 <1>   0.0610 
 16 H        7.5000     0.2750    -1.0230 H     1 <1>   0.0000 
 17 H        8.2290    -1.3020    -1.3530 H     1 <1>   0.0000 
 18 C        8.3390    -0.6810     0.7130 C.3   1 <1>   0.0000 
 19 H        7.7450    -0.1250     1.4460 H     1 <1>   0.0000 
 20 H        8.5070    -1.6850     1.1160 H     1 <1>   0.0000 
 21 H        9.3100    -0.1860     0.6120 H     1 <1>   0.0000 
 22 C        0.5060    -0.5650     0.8790 C.2   1 <1>   0.4690 
 23 O        0.6520     0.4540     1.5450 O.2   1 <1>  -0.5700 
 24 C       -0.8000    -1.2700     0.9210 C.ar  1 <1>   0.0860 
 25 C       -1.8960    -0.6980     1.5780 C.ar  1 <1>  -0.1500 
 26 H       -1.8030     0.2760     2.0540 H     1 <1>   0.1500 
 27 C       -3.1100    -1.3820     1.6200 C.ar  1 <1>  -0.1500 
 28 H       -3.9650    -0.9410     2.1270 H     1 <1>   0.1500 
 29 C       -3.2250    -2.6330     1.0130 C.ar  1 <1>  -0.1500 
 30 H       -4.1730    -3.1650     1.0460 H     1 <1>   0.1500 
 31 C       -2.1270    -3.2040     0.3620 C.ar  1 <1>  -0.1500 
 32 H       -2.2410    -4.1780    -0.1060 H     1 <1>   0.1500 
 33 C       -0.9040    -2.5270     0.3140 C.ar  1 <1>   0.1000 
 34 N        0.2000    -3.0740    -0.3460 N.pl3 1 <1>  -0.6000 
 35 H        0.1210    -4.0130    -0.7110 H     1 <1>   0.4000 
@<TRIPOS>BOND
  1   1   2  1   
  2   2   3  1   
  3   3   4  2   
  4   3  34  1   
  5   4   5  1   
  6   4  22  1   
  7   5   6  2   
  8   5   7  am  
  9   7   8  1   
 10   7   9  1   
 11   9  10  2   
 12  10  11  1   
 13  10  15  1   
 14  11  12  1   
 15  11  13  1   
 16  11  14  1   
 17  15  16  1   
 18  15  17  1   
 19  15  18  1   
 20  18  19  1   
 21  18  20  1   
 22  18  21  1   
 23  22  23  2   
 24  22  24  1   
 25  24  25  ar  
 26  24  33  ar  
 27  25  26  1   
 28  25  27  ar  
 29  27  28  1   
 30  27  29  ar  
 31  29  30  1   
 32  29  31  ar  
 33  31  32  1   
 34  31  33  ar  
 35  33  34  1   
 36  34  35  1   
@<TRIPOS>SUBSTRUCTURE
  1 ****   4 GROUP 4 **** **** 0

# MOE 2022.02 (io_trps.svl 2020.11)

@<TRIPOS>MOLECULE
CEP129
37 39 1 0 0 
SMALL
USER_CHARGES


@<TRIPOS>ATOM
  1 H       -0.3830    -3.0690    -1.8420 H     1 <1>   0.5000 
  2 O       -0.1030    -2.7830    -0.9480 O.3   1 <1>  -0.6500 
  3 C        1.2420    -2.8970    -0.9800 C.2   1 <1>   0.6590 
  4 O        1.8030    -3.2240    -2.0140 O.2   1 <1>  -0.5700 
  5 C        1.8770    -2.5110     0.3360 C.3   1 <1>   0.1990 
  6 H        1.8290    -1.4210     0.4220 H     1 <1>   0.0000 
  7 H        1.2770    -2.9150     1.1600 H     1 <1>   0.0000 
  8 C        3.2870    -3.0500     0.4160 C.2   1 <1>  -0.1240 
  9 C        4.4310    -2.3370     0.2660 C.2   1 <1>  -0.0570 
 10 C        4.3170    -0.8900    -0.0280 C.ar  1 <1>   0.0280 
 11 C        4.3980     0.0500     1.0070 C.ar  1 <1>  -0.1500 
 12 H        4.5460    -0.2740     2.0340 H     1 <1>   0.1500 
 13 C        4.2910     1.4130     0.7250 C.ar  1 <1>  -0.1500 
 14 H        4.3550     2.1410     1.5300 H     1 <1>   0.1500 
 15 C        4.1040     1.8410    -0.5890 C.ar  1 <1>  -0.1500 
 16 H        4.0210     2.9030    -0.8080 H     1 <1>   0.1500 
 17 C        4.0240     0.9100    -1.6240 C.ar  1 <1>  -0.1500 
 18 H        3.8790     1.2440    -2.6480 H     1 <1>   0.1500 
 19 C        4.1310    -0.4540    -1.3460 C.ar  1 <1>  -0.1500 
 20 H        4.0680    -1.1740    -2.1600 H     1 <1>   0.1500 
 21 C        5.7380    -3.0380     0.3850 C.ar  1 <1>   0.0280 
 22 C        6.9630    -2.3670     0.2390 C.ar  1 <1>  -0.1500 
 23 H        6.9810    -1.3010     0.0220 H     1 <1>   0.1500 
 24 C        8.1850    -3.0480     0.3640 C.ar  1 <1>  -0.1440 
 25 C        9.4810    -2.3160     0.1710 C.3   1 <1>   0.1440 
 26 H        9.7470    -2.3010    -0.8910 H     1 <1>   0.0000 
 27 H       10.2900    -2.7960     0.7320 H     1 <1>   0.0000 
 28 H        9.4040    -1.2850     0.5320 H     1 <1>   0.0000 
 29 C        8.1780    -4.4240     0.6130 C.ar  1 <1>  -0.1500 
 30 H        9.1140    -4.9720     0.6940 H     1 <1>   0.1500 
 31 C        6.9710    -5.1060     0.7570 C.ar  1 <1>  -0.1500 
 32 H        6.9840    -6.1740     0.9510 H     1 <1>   0.1500 
 33 C        5.7650    -4.4120     0.6430 C.ar  1 <1>   0.1170 
 34 N        4.5640    -5.1070     0.7840 N.am  1 <1>  -0.5470 
 35 H        4.5660    -6.1000     0.9670 H     1 <1>   0.3700 
 36 C        3.3370    -4.5220     0.6880 C.2   1 <1>   0.6160 
 37 O        2.3130    -5.1850     0.8290 O.2   1 <1>  -0.5700 
@<TRIPOS>BOND
  1   1   2  1   
  2   2   3  1   
  3   3   4  2   
  4   3   5  1   
  5   5   6  1   
  6   5   7  1   
  7   5   8  1   
  8   8   9  2   
  9   8  36  1   
 10   9  10  1   
 11   9  21  1   
 12  10  11  ar  
 13  10  19  ar  
 14  11  12  1   
 15  11  13  ar  
 16  13  14  1   
 17  13  15  ar  
 18  15  16  1   
 19  15  17  ar  
 20  17  18  1   
 21  17  19  ar  
 22  19  20  1   
 23  21  22  ar  
 24  21  33  ar  
 25  22  23  1   
 26  22  24  ar  
 27  24  25  1   
 28  24  29  ar  
 29  25  26  1   
 30  25  27  1   
 31  25  28  1   
 32  29  30  1   
 33  29  31  ar  
 34  31  32  1   
 35  31  33  ar  
 36  33  34  1   
 37  34  35  1   
 38  34  36  am  
 39  36  37  2   
@<TRIPOS>SUBSTRUCTURE
  1 ****   9 GROUP 4 **** **** 0

# MOE 2022.02 (io_trps.svl 2020.11)

@<TRIPOS>MOLECULE
CEP130
40 40 1 0 0 
SMALL
USER_CHARGES


@<TRIPOS>ATOM
  1 H       -3.4200     3.3180     0.0300 H     1 <1>   0.1500 
  2 C       -2.5550     2.6680    -0.0570 C.ar  1 <1>  -0.1500 
  3 C       -2.7200     1.2890    -0.1880 C.ar  1 <1>   0.0820 
  4 O       -3.9390     0.6630    -0.2330 O.3   1 <1>  -0.3630 
  5 C       -5.1090     1.4600    -0.1050 C.3   1 <1>   0.2800 
  6 H       -5.1330     1.9730     0.8620 H     1 <1>   0.0000 
  7 H       -5.1950     2.1700    -0.9340 H     1 <1>   0.0000 
  8 H       -5.9740     0.7920    -0.1470 H     1 <1>   0.0000 
  9 C       -1.5800     0.4770    -0.3380 C.ar  1 <1>   0.0820 
 10 O       -1.6950    -0.8700    -0.6020 O.3   1 <1>  -0.3630 
 11 C       -2.3540    -1.5880     0.4410 C.3   1 <1>   0.2800 
 12 H       -2.2770    -1.0940     1.4170 H     1 <1>   0.0000 
 13 H       -3.4020    -1.7550     0.1770 H     1 <1>   0.0000 
 14 H       -1.8740    -2.5680     0.5250 H     1 <1>   0.0000 
 15 C       -0.2860     1.0480    -0.3560 C.ar  1 <1>   0.0820 
 16 O        0.8090     0.3080    -0.7450 O.3   1 <1>  -0.3630 
 17 C        1.0600    -0.8270     0.0840 C.3   1 <1>   0.2800 
 18 H        0.6930    -0.6970     1.1080 H     1 <1>   0.0000 
 19 H        0.6290    -1.7250    -0.3690 H     1 <1>   0.0000 
 20 H        2.1430    -0.9780     0.1280 H     1 <1>   0.0000 
 21 C       -0.1190     2.4380    -0.1830 C.ar  1 <1>   0.1170 
 22 N        1.1510     3.0760    -0.1560 N.am  1 <1>  -0.5470 
 23 H        1.1530     4.0620    -0.4230 H     1 <1>   0.3700 
 24 C        2.3590     2.5450     0.2520 C.2   1 <1>   0.5690 
 25 O        2.5080     1.5480     0.9500 O.2   1 <1>  -0.5700 
 26 C        3.5250     3.4240    -0.1700 C.3   1 <1>   0.0610 
 27 H        3.4390     4.3840     0.3500 H     1 <1>   0.0000 
 28 H        3.4470     3.6140    -1.2470 H     1 <1>   0.0000 
 29 C        4.8710     2.7920     0.1360 C.3   1 <1>   0.0000 
 30 H        4.9750     1.8250    -0.3670 H     1 <1>   0.0000 
 31 H        4.9920     2.6260     1.2110 H     1 <1>   0.0000 
 32 H        5.6830     3.4440    -0.2020 H     1 <1>   0.0000 
 33 C       -1.2720     3.2470    -0.0640 C.ar  1 <1>   0.0860 
 34 C       -1.1410     4.7300     0.0460 C.2   1 <1>   0.6340 
 35 O       -0.1460     5.3470    -0.3080 O.2   1 <1>  -0.5700 
 36 O       -2.2510     5.2750     0.6040 O.3   1 <1>  -0.4300 
 37 C       -2.1900     6.6940     0.7630 C.3   1 <1>   0.2800 
 38 H       -1.3580     6.9710     1.4170 H     1 <1>   0.0000 
 39 H       -2.0980     7.1840    -0.2120 H     1 <1>   0.0000 
 40 H       -3.1230     7.0230     1.2300 H     1 <1>   0.0000 
@<TRIPOS>BOND
  1   1   2  1   
  2   2   3  ar  
  3   2  33  ar  
  4   3   4  1   
  5   3   9  ar  
  6   4   5  1   
  7   5   6  1   
  8   5   7  1   
  9   5   8  1   
 10   9  10  1   
 11   9  15  ar  
 12  10  11  1   
 13  11  12  1   
 14  11  13  1   
 15  11  14  1   
 16  15  16  1   
 17  15  21  ar  
 18  16  17  1   
 19  17  18  1   
 20  17  19  1   
 21  17  20  1   
 22  21  22  1   
 23  21  33  ar  
 24  22  23  1   
 25  22  24  am  
 26  24  25  2   
 27  24  26  1   
 28  26  27  1   
 29  26  28  1   
 30  26  29  1   
 31  29  30  1   
 32  29  31  1   
 33  29  32  1   
 34  33  34  1   
 35  34  35  2   
 36  34  36  1   
 37  36  37  1   
 38  37  38  1   
 39  37  39  1   
 40  37  40  1   
@<TRIPOS>SUBSTRUCTURE
  1 ****  21 GROUP 4 **** **** 0

# MOE 2022.02 (io_trps.svl 2020.11)

@<TRIPOS>MOLECULE
CEP131
30 30 1 0 0 
SMALL
USER_CHARGES


@<TRIPOS>ATOM
  1 H       -6.8280    -2.6050     0.1310 H     1 <1>   0.1500 
  2 C       -6.6830    -1.5280     0.0850 C.ar  1 <1>  -0.1500 
  3 C       -5.3810    -1.0100     0.0850 C.ar  1 <1>  -0.1500 
  4 H       -4.5690    -1.7300     0.1360 H     1 <1>   0.1500 
  5 C       -5.1440     0.3710     0.0280 C.ar  1 <1>   0.1170 
  6 N       -3.8250     0.8960     0.0330 N.am  1 <1>  -0.5470 
  7 H       -3.7540     1.9160     0.0200 H     1 <1>   0.3700 
  8 C       -2.6200     0.2130     0.0550 C.2   1 <1>   0.5690 
  9 O       -2.4710    -1.0020     0.0740 O.2   1 <1>  -0.5700 
 10 C       -1.4430     1.1700     0.0510 C.3   1 <1>   0.0610 
 11 H       -1.5190     1.8180     0.9330 H     1 <1>   0.0000 
 12 H       -1.5210     1.8080    -0.8380 H     1 <1>   0.0000 
 13 C       -0.1090     0.4340     0.0550 C.3   1 <1>   0.0610 
 14 H       -0.0440    -0.2300    -0.8150 H     1 <1>   0.0000 
 15 H       -0.0130    -0.1680     0.9660 H     1 <1>   0.0000 
 16 C        1.0410     1.4040    -0.0010 C.2   1 <1>   0.6590 
 17 O        0.9360     2.6220    -0.0030 O.2   1 <1>  -0.5700 
 18 O        2.2170     0.7170    -0.0460 O.3   1 <1>  -0.4300 
 19 C        3.3750     1.5500    -0.1020 C.3   1 <1>   0.2800 
 20 H        4.2560     0.9030    -0.1460 H     1 <1>   0.0000 
 21 H        3.4450     2.1700     0.7970 H     1 <1>   0.0000 
 22 H        3.3580     2.1720    -1.0030 H     1 <1>   0.0000 
 23 C       -6.2740     1.2240    -0.0340 C.ar  1 <1>   0.1330 
 24 N       -6.1350     2.6880    -0.1130 N.pl3 1 <1>   0.9070 
 25 O       -7.1510     3.3530    -0.3620 O.2   1 <1>  -0.5200 
 26 O       -5.0110     3.1800     0.0690 O.2   1 <1>  -0.5200 
 27 C       -7.5820     0.7030    -0.0330 C.ar  1 <1>  -0.1500 
 28 H       -8.4510     1.3570    -0.0800 H     1 <1>   0.1500 
 29 C       -7.7750    -0.6720     0.0260 C.ar  1 <1>   0.1770 
 30 CL      -9.3690    -1.3150     0.0280 Cl    1 <1>  -0.1770 
@<TRIPOS>BOND
  1   1   2  1   
  2   2   3  ar  
  3   2  29  ar  
  4   3   4  1   
  5   3   5  ar  
  6   5   6  1   
  7   5  23  ar  
  8   6   7  1   
  9   6   8  am  
 10   8   9  2   
 11   8  10  1   
 12  10  11  1   
 13  10  12  1   
 14  10  13  1   
 15  13  14  1   
 16  13  15  1   
 17  13  16  1   
 18  16  17  2   
 19  16  18  1   
 20  18  19  1   
 21  19  20  1   
 22  19  21  1   
 23  19  22  1   
 24  23  24  1   
 25  23  27  ar  
 26  24  25  2   
 27  24  26  2   
 28  27  28  1   
 29  27  29  ar  
 30  29  30  1   
@<TRIPOS>SUBSTRUCTURE
  1 ****   6 GROUP 4 **** **** 0

# MOE 2022.02 (io_trps.svl 2020.11)

@<TRIPOS>MOLECULE
CEP132
36 38 1 0 0 
SMALL
USER_CHARGES


@<TRIPOS>ATOM
  1 H       12.8980     2.8440     0.1360 H     1 <1>   0.5000 
  2 O       12.1630     3.4900     0.0840 O.3   1 <1>  -0.6500 
  3 C       11.0500     2.7300     0.1010 C.2   1 <1>   0.6590 
  4 O       11.1300     1.5160     0.1690 O.2   1 <1>  -0.5700 
  5 C        9.8010     3.5610     0.0310 C.3   1 <1>   0.0610 
  6 H        9.7790     4.2190     0.9070 H     1 <1>   0.0000 
  7 H        9.8490     4.1780    -0.8740 H     1 <1>   0.0000 
  8 C        8.5540     2.6850    -0.0010 C.3   1 <1>   0.0610 
  9 H        8.5970     2.0100    -0.8640 H     1 <1>   0.0000 
 10 H        8.5100     2.0630     0.9010 H     1 <1>   0.0000 
 11 C        7.2650     3.4770    -0.0860 C.2   1 <1>   0.3890 
 12 N        7.2850     4.7730    -0.0470 N.2   1 <1>  -0.6290 
 13 C        6.0730     5.4660    -0.1500 C.ar  1 <1>   0.1790 
 14 C        6.1480     6.8640    -0.2010 C.ar  1 <1>  -0.1500 
 15 H        7.1190     7.3480    -0.1230 H     1 <1>   0.1500 
 16 C        5.0030     7.6390    -0.3680 C.ar  1 <1>  -0.1500 
 17 H        5.0790     8.7220    -0.4110 H     1 <1>   0.1500 
 18 C        3.7710     7.0140    -0.5060 C.ar  1 <1>  -0.1500 
 19 H        2.8750     7.6080    -0.6690 H     1 <1>   0.1500 
 20 C        3.6830     5.6200    -0.4530 C.ar  1 <1>  -0.1500 
 21 H        2.7040     5.1810    -0.6200 H     1 <1>   0.1500 
 22 C        4.8240     4.8240    -0.2360 C.ar  1 <1>   0.1170 
 23 N        4.7910     3.3930    -0.1790 N.am  1 <1>  -0.2940 
 24 C        3.5430     2.7000    -0.1040 C.ar  1 <1>   0.1170 
 25 C        2.5660     3.0640     0.8370 C.ar  1 <1>  -0.1500 
 26 H        2.7470     3.8760     1.5390 H     1 <1>   0.1500 
 27 C        1.3580     2.3680     0.9230 C.ar  1 <1>  -0.1500 
 28 H        0.6120     2.6620     1.6580 H     1 <1>   0.1500 
 29 C        1.1150     1.2870     0.0800 C.ar  1 <1>  -0.1500 
 30 H        0.1770     0.7420     0.1480 H     1 <1>   0.1500 
 31 C        2.0840     0.8950    -0.8390 C.ar  1 <1>  -0.1500 
 32 H        1.9050     0.0420    -1.4900 H     1 <1>   0.1500 
 33 C        3.2940     1.5900    -0.9240 C.ar  1 <1>  -0.1500 
 34 H        4.0320     1.2620    -1.6520 H     1 <1>   0.1500 
 35 C        5.9840     2.6650    -0.1850 C.2   1 <1>   0.6300 
 36 O        6.1030     1.4440    -0.2140 O.2   1 <1>  -0.5700 
@<TRIPOS>BOND
  1   1   2  1   
  2   2   3  1   
  3   3   4  2   
  4   3   5  1   
  5   5   6  1   
  6   5   7  1   
  7   5   8  1   
  8   8   9  1   
  9   8  10  1   
 10   8  11  1   
 11  11  12  2   
 12  11  35  1   
 13  12  13  1   
 14  13  14  ar  
 15  13  22  ar  
 16  14  15  1   
 17  14  16  ar  
 18  16  17  1   
 19  16  18  ar  
 20  18  19  1   
 21  18  20  ar  
 22  20  21  1   
 23  20  22  ar  
 24  22  23  1   
 25  23  24  1   
 26  23  35  am  
 27  24  25  ar  
 28  24  33  ar  
 29  25  26  1   
 30  25  27  ar  
 31  27  28  1   
 32  27  29  ar  
 33  29  30  1   
 34  29  31  ar  
 35  31  32  1   
 36  31  33  ar  
 37  33  34  1   
 38  35  36  2   
@<TRIPOS>SUBSTRUCTURE
  1 ****  35 GROUP 4 **** **** 0

# MOE 2022.02 (io_trps.svl 2020.11)

@<TRIPOS>MOLECULE
CEP133
35 37 1 0 0 
SMALL
USER_CHARGES


@<TRIPOS>ATOM
  1 H        1.2260    -0.9840    -0.9740 H     1 <1>   0.4500 
  2 O        1.4520    -0.0420    -0.9060 O.3   1 <1>  -0.5270 
  3 C        0.3630     0.6010    -0.3670 C.2   1 <1>   0.1770 
  4 C        0.5060     1.7440     0.3370 C.2   1 <1>   0.0290 
  5 C        1.8420     2.3400     0.6180 C.2   1 <1>   0.6160 
  6 O        2.1400     2.7640     1.7310 O.2   1 <1>  -0.5700 
  7 N        2.7070     2.3760    -0.4460 N.am  1 <1>  -0.7300 
  8 H        2.4410     1.9410    -1.3210 H     1 <1>   0.3700 
  9 C        4.0240     2.9690    -0.3610 C.3   1 <1>   0.4440 
 10 H        4.0720     3.6960     0.4570 H     1 <1>   0.0000 
 11 H        4.1900     3.5140    -1.2960 H     1 <1>   0.0000 
 12 C        5.0950     1.9170    -0.1910 C.ar  1 <1>   0.1660 
 13 N        5.7560     1.5110    -1.3070 N.ar  1 <1>  -0.6200 
 14 C        6.6950     0.5510    -1.1550 C.ar  1 <1>   0.1600 
 15 H        7.2060     0.2560    -2.0670 H     1 <1>   0.1500 
 16 C        7.0090    -0.0370     0.0580 C.ar  1 <1>  -0.1500 
 17 H        7.7720    -0.8050     0.1200 H     1 <1>   0.1500 
 18 C        6.3180     0.3810     1.1880 C.ar  1 <1>  -0.1500 
 19 H        6.5300    -0.0590     2.1580 H     1 <1>   0.1500 
 20 C        5.3460     1.3690     1.0660 C.ar  1 <1>  -0.1500 
 21 H        4.7850     1.7030     1.9350 H     1 <1>   0.1500 
 22 C       -0.7300     2.3690     0.8980 C.2   1 <1>   0.4690 
 23 O       -0.7240     3.4580     1.4630 O.2   1 <1>  -0.5700 
 24 C       -2.0170     1.6520     0.7160 C.ar  1 <1>   0.0860 
 25 C       -3.1960     2.1540     1.2790 C.ar  1 <1>  -0.1500 
 26 H       -3.1780     3.0700     1.8650 H     1 <1>   0.1500 
 27 C       -4.3980     1.4760     1.0820 C.ar  1 <1>  -0.1500 
 28 H       -5.3170     1.8620     1.5170 H     1 <1>   0.1500 
 29 C       -4.4200     0.3020     0.3280 C.ar  1 <1>  -0.1500 
 30 H       -5.3580    -0.2260     0.1770 H     1 <1>   0.1500 
 31 C       -3.2410    -0.1960    -0.2340 C.ar  1 <1>  -0.1500 
 32 H       -3.2830    -1.1130    -0.8170 H     1 <1>   0.1500 
 33 C       -2.0300     0.4770    -0.0480 C.ar  1 <1>   0.1000 
 34 N       -0.8400    -0.0100    -0.5970 N.pl3 1 <1>  -0.6000 
 35 H       -0.8850    -0.8270    -1.1900 H     1 <1>   0.4000 
@<TRIPOS>BOND
  1   1   2  1   
  2   2   3  1   
  3   3   4  2   
  4   3  34  1   
  5   4   5  1   
  6   4  22  1   
  7   5   6  2   
  8   5   7  am  
  9   7   8  1   
 10   7   9  1   
 11   9  10  1   
 12   9  11  1   
 13   9  12  1   
 14  12  13  ar  
 15  12  20  ar  
 16  13  14  ar  
 17  14  15  1   
 18  14  16  ar  
 19  16  17  1   
 20  16  18  ar  
 21  18  19  1   
 22  18  20  ar  
 23  20  21  1   
 24  22  23  2   
 25  22  24  1   
 26  24  25  ar  
 27  24  33  ar  
 28  25  26  1   
 29  25  27  ar  
 30  27  28  1   
 31  27  29  ar  
 32  29  30  1   
 33  29  31  ar  
 34  31  32  1   
 35  31  33  ar  
 36  33  34  1   
 37  34  35  1   
@<TRIPOS>SUBSTRUCTURE
  1 ****   4 GROUP 4 **** **** 0

# MOE 2022.02 (io_trps.svl 2020.11)

@<TRIPOS>MOLECULE
CEP134
34 35 1 0 0 
SMALL
USER_CHARGES


@<TRIPOS>ATOM
  1 H        0.2430     1.1290    -0.0260 H     1 <1>   0.1500 
  2 C       -0.5750     0.4170    -0.0140 C.ar  1 <1>  -0.1500 
  3 C       -0.3700    -0.9640    -0.0030 C.ar  1 <1>   0.1170 
  4 N        0.9040    -1.5720    -0.0010 N.am  1 <1>  -0.5470 
  5 H        0.9180    -2.5850     0.0110 H     1 <1>   0.3700 
  6 C        2.1390    -0.9410    -0.0120 C.2   1 <1>   0.5690 
  7 O        2.3350     0.2670    -0.0410 O.2   1 <1>  -0.5700 
  8 C        3.2780    -1.9500     0.0150 C.3   1 <1>   0.0610 
  9 H        3.2020    -2.5750    -0.8840 H     1 <1>   0.0000 
 10 H        3.1420    -2.5980     0.8890 H     1 <1>   0.0000 
 11 C        4.6500    -1.2830     0.0710 C.3   1 <1>   0.0000 
 12 H        4.7080    -0.6320     0.9530 H     1 <1>   0.0000 
 13 H        4.7830    -0.6370    -0.8060 H     1 <1>   0.0000 
 14 C        5.7720    -2.3180     0.1240 C.3   1 <1>   0.0000 
 15 H        5.7240    -2.9650    -0.7600 H     1 <1>   0.0000 
 16 H        5.6460    -2.9600     1.0030 H     1 <1>   0.0000 
 17 C        7.1390    -1.6560     0.1820 C.3   1 <1>   0.0000 
 18 H        7.9270    -2.4150     0.2220 H     1 <1>   0.0000 
 19 H        7.3120    -1.0330    -0.7010 H     1 <1>   0.0000 
 20 H        7.2310    -1.0240     1.0720 H     1 <1>   0.0000 
 21 C       -1.4840    -1.8220     0.0130 C.ar  1 <1>  -0.1500 
 22 H       -1.3420    -2.9000     0.0210 H     1 <1>   0.1500 
 23 C       -2.7860    -1.3060     0.0200 C.ar  1 <1>   0.0280 
 24 C       -3.9600    -2.1790     0.0390 C.2   1 <1>  -0.1780 
 25 H       -3.8200    -3.2540     0.0460 H     1 <1>   0.1500 
 26 C       -5.1900    -1.6460     0.0470 C.2   1 <1>  -0.1360 
 27 H       -6.0860    -2.2550     0.0610 H     1 <1>   0.1500 
 28 C       -5.4000    -0.1760     0.0370 C.2   1 <1>   0.6160 
 29 O       -6.5320     0.2950     0.0450 O.2   1 <1>  -0.5700 
 30 N       -4.2750     0.6020     0.0200 N.am  1 <1>  -0.5470 
 31 H       -4.4080     1.6060     0.0130 H     1 <1>   0.3700 
 32 C       -2.9730     0.0790     0.0110 C.ar  1 <1>   0.1170 
 33 C       -1.8710     0.9280    -0.0070 C.ar  1 <1>   0.1900 
 34 F       -2.0540     2.2580    -0.0160 F     1 <1>  -0.1900 
@<TRIPOS>BOND
  1   1   2  1   
  2   2   3  ar  
  3   2  33  ar  
  4   3   4  1   
  5   3  21  ar  
  6   4   5  1   
  7   4   6  am  
  8   6   7  2   
  9   6   8  1   
 10   8   9  1   
 11   8  10  1   
 12   8  11  1   
 13  11  12  1   
 14  11  13  1   
 15  11  14  1   
 16  14  15  1   
 17  14  16  1   
 18  14  17  1   
 19  17  18  1   
 20  17  19  1   
 21  17  20  1   
 22  21  22  1   
 23  21  23  ar  
 24  23  24  1   
 25  23  32  ar  
 26  24  25  1   
 27  24  26  2   
 28  26  27  1   
 29  26  28  1   
 30  28  29  2   
 31  28  30  am  
 32  30  31  1   
 33  30  32  1   
 34  32  33  ar  
 35  33  34  1   
@<TRIPOS>SUBSTRUCTURE
  1 ****   3 GROUP 4 **** **** 0

# MOE 2022.02 (io_trps.svl 2020.11)

@<TRIPOS>MOLECULE
CEP135
32 34 1 0 0 
SMALL
USER_CHARGES


@<TRIPOS>ATOM
  1 H       -2.3190     3.6250     0.7340 H     1 <1>   0.1500 
  2 C       -2.3680     2.6030     0.3580 C.2   1 <1>  -0.1780 
  3 C       -1.2260     1.9450     0.1130 C.2   1 <1>   0.0290 
  4 C       -1.0040     0.5890    -0.4310 C.2   1 <1>   0.6160 
  5 O       -1.8220    -0.2450    -0.7610 O.2   1 <1>  -0.5700 
  6 N        0.3650     0.4590    -0.4870 N.am  1 <1>  -0.4300 
  7 H        0.8240    -0.3750    -0.8200 H     1 <1>   0.3700 
  8 N        1.0330     1.6020    -0.0340 N.am  1 <1>  -0.1770 
  9 C        2.4500     1.7060    -0.0040 C.ar  1 <1>   0.1170 
 10 C        3.2640     0.6490    -0.4450 C.ar  1 <1>  -0.1500 
 11 H        2.8470    -0.2780    -0.8230 H     1 <1>   0.1500 
 12 C        4.6600     0.7460    -0.4180 C.ar  1 <1>  -0.1500 
 13 H        5.2700    -0.0850    -0.7650 H     1 <1>   0.1500 
 14 C        5.2710     1.9030     0.0520 C.ar  1 <1>  -0.1500 
 15 H        6.3550     1.9800     0.0740 H     1 <1>   0.1500 
 16 C        4.4860     2.9620     0.4930 C.ar  1 <1>  -0.1500 
 17 H        4.9550     3.8710     0.8620 H     1 <1>   0.1500 
 18 C        3.0900     2.8630     0.4650 C.ar  1 <1>  -0.1500 
 19 H        2.5290     3.7220     0.8230 H     1 <1>   0.1500 
 20 C        0.1020     2.5760     0.3600 C.2   1 <1>   0.6160 
 21 O        0.2540     3.6990     0.8080 O.2   1 <1>  -0.5700 
 22 C       -3.7310     2.1070     0.1450 C.ar  1 <1>   0.0280 
 23 C       -4.2030     0.9490     0.7770 C.ar  1 <1>  -0.1500 
 24 H       -3.5490     0.3620     1.4190 H     1 <1>   0.1500 
 25 C       -5.5200     0.5190     0.5830 C.ar  1 <1>  -0.1500 
 26 H       -5.8710    -0.3880     1.0680 H     1 <1>   0.1500 
 27 C       -6.3780     1.2530    -0.2330 C.ar  1 <1>  -0.1500 
 28 H       -7.4020     0.9320    -0.3940 H     1 <1>   0.1500 
 29 C       -5.9120     2.4090    -0.8460 C.ar  1 <1>   0.1900 
 30 F       -6.7380     3.1200    -1.6250 F     1 <1>  -0.1900 
 31 C       -4.6030     2.8450    -0.6610 C.ar  1 <1>  -0.1500 
 32 H       -4.2800     3.7560    -1.1560 H     1 <1>   0.1500 
@<TRIPOS>BOND
  1   1   2  1   
  2   2   3  2   
  3   2  22  1   
  4   3   4  1   
  5   3  20  1   
  6   4   5  2   
  7   4   6  am  
  8   6   7  1   
  9   6   8  1   
 10   8   9  1   
 11   8  20  am  
 12   9  10  ar  
 13   9  18  ar  
 14  10  11  1   
 15  10  12  ar  
 16  12  13  1   
 17  12  14  ar  
 18  14  15  1   
 19  14  16  ar  
 20  16  17  1   
 21  16  18  ar  
 22  18  19  1   
 23  20  21  2   
 24  22  23  ar  
 25  22  31  ar  
 26  23  24  1   
 27  23  25  ar  
 28  25  26  1   
 29  25  27  ar  
 30  27  28  1   
 31  27  29  ar  
 32  29  30  1   
 33  29  31  ar  
 34  31  32  1   
@<TRIPOS>SUBSTRUCTURE
  1 ****   3 GROUP 4 **** **** 0

# MOE 2022.02 (io_trps.svl 2020.11)

@<TRIPOS>MOLECULE
CEP136
33 35 1 0 0 
SMALL
USER_CHARGES


@<TRIPOS>ATOM
  1 H        4.3360     4.5470    -0.4520 H     1 <1>   0.1500 
  2 C        3.2820     4.7470    -0.2790 C.ar  1 <1>  -0.1500 
  3 C        2.4570     3.7570     0.2410 C.ar  1 <1>  -0.1500 
  4 H        2.8630     2.7770     0.4760 H     1 <1>   0.1500 
  5 C        1.1010     4.0220     0.4630 C.ar  1 <1>  -0.1500 
  6 H        0.4770     3.2300     0.8670 H     1 <1>   0.1500 
  7 C        0.5430     5.2760     0.1750 C.ar  1 <1>   0.1000 
  8 N       -0.8070     5.4740     0.4010 N.pl3 1 <1>  -0.8690 
  9 H       -1.3130     4.7450     0.8850 H     1 <1>   0.4000 
 10 C       -1.5280     6.6860     0.0390 C.3   1 <1>   0.5070 
 11 H       -1.2540     7.4640     0.7610 H     1 <1>   0.0000 
 12 H       -1.2400     7.0290    -0.9630 H     1 <1>   0.0000 
 13 C       -3.0180     6.4640     0.0270 C.2   1 <1>  -0.1240 
 14 C       -3.6440     5.2950    -0.2100 C.2   1 <1>  -0.1780 
 15 H       -3.0850     4.3930    -0.4370 H     1 <1>   0.1500 
 16 C       -5.1030     5.1970    -0.1920 C.ar  1 <1>   0.0280 
 17 C       -5.7580     3.9850    -0.4210 C.ar  1 <1>  -0.1500 
 18 H       -5.1940     3.0770    -0.6230 H     1 <1>   0.1500 
 19 C       -7.1540     3.9290    -0.3920 C.ar  1 <1>  -0.1500 
 20 H       -7.6630     2.9850    -0.5700 H     1 <1>   0.1500 
 21 C       -7.8970     5.0830    -0.1360 C.ar  1 <1>  -0.1500 
 22 H       -8.9830     5.0340    -0.1160 H     1 <1>   0.1500 
 23 C       -7.2500     6.2980     0.0920 C.ar  1 <1>  -0.1500 
 24 H       -7.8380     7.1890     0.2890 H     1 <1>   0.1500 
 25 C       -5.8560     6.3480     0.0630 C.ar  1 <1>   0.1170 
 26 N       -5.1950     7.5600     0.2850 N.am  1 <1>  -0.5470 
 27 H       -5.7230     8.4040     0.4630 H     1 <1>   0.3700 
 28 C       -3.8330     7.6970     0.2740 C.2   1 <1>   0.6160 
 29 O       -3.3080     8.7930     0.4520 O.2   1 <1>  -0.5700 
 30 C        1.3920     6.2560    -0.3520 C.ar  1 <1>  -0.1500 
 31 H        1.0190     7.2470    -0.5890 H     1 <1>   0.1500 
 32 C        2.7500     5.9980    -0.5760 C.ar  1 <1>  -0.1500 
 33 H        3.3870     6.7790    -0.9810 H     1 <1>   0.1500 
@<TRIPOS>BOND
  1   1   2  1   
  2   2   3  ar  
  3   2  32  ar  
  4   3   4  1   
  5   3   5  ar  
  6   5   6  1   
  7   5   7  ar  
  8   7   8  1   
  9   7  30  ar  
 10   8   9  1   
 11   8  10  1   
 12  10  11  1   
 13  10  12  1   
 14  10  13  1   
 15  13  14  2   
 16  13  28  1   
 17  14  15  1   
 18  14  16  1   
 19  16  17  ar  
 20  16  25  ar  
 21  17  18  1   
 22  17  19  ar  
 23  19  20  1   
 24  19  21  ar  
 25  21  22  1   
 26  21  23  ar  
 27  23  24  1   
 28  23  25  ar  
 29  25  26  1   
 30  26  27  1   
 31  26  28  am  
 32  28  29  2   
 33  30  31  1   
 34  30  32  ar  
 35  32  33  1   
@<TRIPOS>SUBSTRUCTURE
  1 ****  13 GROUP 4 **** **** 0

# MOE 2022.02 (io_trps.svl 2020.11)

@<TRIPOS>MOLECULE
CEP137
35 36 1 0 0 
SMALL
USER_CHARGES


@<TRIPOS>ATOM
  1 H       -4.6530     3.2620     1.3800 H     1 <1>   0.1500 
  2 C       -3.7330     2.8880     0.9350 C.ar  1 <1>  -0.1500 
  3 C       -3.6710     1.5870     0.4560 C.ar  1 <1>  -0.1500 
  4 H       -4.5450     0.9440     0.5150 H     1 <1>   0.1500 
  5 C       -2.4700     1.1120    -0.0560 C.ar  1 <1>   0.1770 
  6 CL      -2.3940    -0.5340    -0.5800 Cl    1 <1>  -0.1770 
  7 C       -1.3410     1.9510    -0.1170 C.ar  1 <1>   0.1170 
  8 C       -1.4000     3.2990     0.2790 C.ar  1 <1>   0.0280 
  9 C       -2.6080     3.7210     0.8590 C.ar  1 <1>  -0.1500 
 10 H       -2.7070     4.7030     1.3030 H     1 <1>   0.1500 
 11 C       -0.1790     4.1650     0.1290 C.2   1 <1>   0.0720 
 12 N       -0.2610     5.5590     0.2300 N.pl3 1 <1>  -0.8690 
 13 H        0.6540     6.0240     0.2190 H     1 <1>   0.4000 
 14 C       -1.3680     6.4910     0.2550 C.3   1 <1>   0.3690 
 15 H       -1.7490     6.5880     1.2760 H     1 <1>   0.0000 
 16 H       -2.1730     6.1490    -0.4050 H     1 <1>   0.0000 
 17 C       -0.8980     7.8650    -0.2300 C.3   1 <1>   0.0000 
 18 H       -0.4790     7.7810    -1.2390 H     1 <1>   0.0000 
 19 H       -0.0940     8.2350     0.4180 H     1 <1>   0.0000 
 20 C       -2.0360     8.8730    -0.2400 C.3   1 <1>   0.0000 
 21 H       -2.4530     9.0040     0.7630 H     1 <1>   0.0000 
 22 H       -1.6780     9.8460    -0.5900 H     1 <1>   0.0000 
 23 H       -2.8410     8.5480    -0.9070 H     1 <1>   0.0000 
 24 C        0.9980     3.5400    -0.1500 C.2   1 <1>   0.0290 
 25 C        2.2600     4.3230    -0.1530 C.2   1 <1>   0.7060 
 26 O        2.3610     5.4810    -0.5390 O.2   1 <1>  -0.5700 
 27 O        3.2560     3.6110     0.4360 O.3   1 <1>  -0.4300 
 28 C        4.5110     4.2870     0.4880 C.3   1 <1>   0.2800 
 29 H        5.2470     3.6030     0.9210 H     1 <1>   0.0000 
 30 H        4.8440     4.5620    -0.5180 H     1 <1>   0.0000 
 31 H        4.4410     5.1720     1.1280 H     1 <1>   0.0000 
 32 C        1.0550     2.1040    -0.5310 C.2   1 <1>   0.6160 
 33 O        2.0850     1.5470    -0.9010 O.2   1 <1>  -0.5700 
 34 N       -0.1170     1.4120    -0.5190 N.am  1 <1>  -0.5470 
 35 H       -0.0710     0.4410    -0.8100 H     1 <1>   0.3700 
@<TRIPOS>BOND
  1   1   2  1   
  2   2   3  ar  
  3   2   9  ar  
  4   3   4  1   
  5   3   5  ar  
  6   5   6  1   
  7   5   7  ar  
  8   7   8  ar  
  9   7  34  1   
 10   8   9  ar  
 11   8  11  1   
 12   9  10  1   
 13  11  12  1   
 14  11  24  2   
 15  12  13  1   
 16  12  14  1   
 17  14  15  1   
 18  14  16  1   
 19  14  17  1   
 20  17  18  1   
 21  17  19  1   
 22  17  20  1   
 23  20  21  1   
 24  20  22  1   
 25  20  23  1   
 26  24  25  1   
 27  24  32  1   
 28  25  26  2   
 29  25  27  1   
 30  27  28  1   
 31  28  29  1   
 32  28  30  1   
 33  28  31  1   
 34  32  33  2   
 35  32  34  am  
 36  34  35  1   
@<TRIPOS>SUBSTRUCTURE
  1 ****  11 GROUP 4 **** **** 0

# MOE 2022.02 (io_trps.svl 2020.11)

@<TRIPOS>MOLECULE
CEP138
31 32 1 0 0 
SMALL
USER_CHARGES


@<TRIPOS>ATOM
  1 H        0.6190    -5.2400    -1.5730 H     1 <1>   0.5000 
  2 O        1.0150    -4.3450    -1.6150 O.3   1 <1>  -0.6500 
  3 C        1.5960    -4.1930    -0.4090 C.2   1 <1>   0.7060 
  4 O        1.4940    -5.0330     0.4660 O.2   1 <1>  -0.5700 
  5 C        2.2940    -2.9080    -0.3060 C.2   1 <1>   0.0290 
  6 C        1.6030    -1.7650    -0.1480 C.2   1 <1>  -0.1380 
  7 C        0.1060    -1.6500    -0.0510 C.3   1 <1>   0.1380 
  8 H       -0.2850    -1.0680    -0.8940 H     1 <1>   0.0000 
  9 H       -0.1800    -1.1430     0.8780 H     1 <1>   0.0000 
 10 H       -0.4050    -2.6170    -0.0550 H     1 <1>   0.0000 
 11 C        2.3290    -0.5200    -0.0210 C.2   1 <1>  -0.1500 
 12 H        1.7480     0.3810     0.1620 H     1 <1>   0.1500 
 13 C        3.6700    -0.4640    -0.0830 C.2   1 <1>  -0.0290 
 14 C        4.3540     0.8540     0.1840 C.3   1 <1>   0.1380 
 15 H        5.1880     0.7380     0.8840 H     1 <1>   0.0000 
 16 H        4.7130     1.3100    -0.7430 H     1 <1>   0.0000 
 17 H        3.6690     1.5760     0.6450 H     1 <1>   0.0000 
 18 N        4.4210    -1.6380    -0.2790 N.am  1 <1>  -0.2860 
 19 C        5.8550    -1.6310    -0.4030 C.ar  1 <1>   0.1170 
 20 C        6.6420    -2.5070     0.3640 C.ar  1 <1>  -0.1500 
 21 H        6.1780    -3.1930     1.0690 H     1 <1>   0.1500 
 22 C        8.0340    -2.5030     0.2460 C.ar  1 <1>  -0.1500 
 23 H        8.6410    -3.1780     0.8420 H     1 <1>   0.1500 
 24 C        8.6430    -1.6340    -0.6480 C.ar  1 <1>   0.1900 
 25 F        9.9770    -1.6330    -0.7650 F     1 <1>  -0.1900 
 26 C        7.8870    -0.7700    -1.4300 C.ar  1 <1>  -0.1500 
 27 H        8.3820    -0.1140    -2.1390 H     1 <1>   0.1500 
 28 C        6.4950    -0.7700    -1.3090 C.ar  1 <1>  -0.1500 
 29 H        5.9150    -0.1270    -1.9650 H     1 <1>   0.1500 
 30 C        3.7830    -2.9000    -0.3730 C.2   1 <1>   0.6160 
 31 O        4.3670    -3.9700    -0.5540 O.2   1 <1>  -0.5700 
@<TRIPOS>BOND
  1   1   2  1   
  2   2   3  1   
  3   3   4  2   
  4   3   5  1   
  5   5   6  2   
  6   5  30  1   
  7   6   7  1   
  8   6  11  1   
  9   7   8  1   
 10   7   9  1   
 11   7  10  1   
 12  11  12  1   
 13  11  13  2   
 14  13  14  1   
 15  13  18  1   
 16  14  15  1   
 17  14  16  1   
 18  14  17  1   
 19  18  19  1   
 20  18  30  am  
 21  19  20  ar  
 22  19  28  ar  
 23  20  21  1   
 24  20  22  ar  
 25  22  23  1   
 26  22  24  ar  
 27  24  25  1   
 28  24  26  ar  
 29  26  27  1   
 30  26  28  ar  
 31  28  29  1   
 32  30  31  2   
@<TRIPOS>SUBSTRUCTURE
  1 ****  18 GROUP 4 **** **** 0

# MOE 2022.02 (io_trps.svl 2020.11)

@<TRIPOS>MOLECULE
CEP139
42 43 1 0 0 
SMALL
USER_CHARGES


@<TRIPOS>ATOM
  1 H      -10.0790     4.6890     0.1600 H     1 <1>   0.1500 
  2 C       -9.0090     4.8720     0.1320 C.ar  1 <1>  -0.1500 
  3 C       -8.1950     4.1330    -0.7190 C.ar  1 <1>  -0.1500 
  4 H       -8.6280     3.3710    -1.3620 H     1 <1>   0.1500 
  5 C       -6.8150     4.3660    -0.7490 C.ar  1 <1>  -0.1500 
  6 H       -6.2160     3.7740    -1.4360 H     1 <1>   0.1500 
  7 C       -6.2260     5.3520     0.0570 C.ar  1 <1>   0.1170 
  8 N       -4.8280     5.5620     0.0180 N.am  1 <1>  -0.1570 
  9 C       -3.8550     4.6130    -0.3030 C.2   1 <1>   0.6160 
 10 O       -3.9490     3.4560    -0.6910 O.2   1 <1>  -0.5700 
 11 C       -2.5190     5.2370     0.0090 C.2   1 <1>   0.1230 
 12 N       -1.3920     4.4790    -0.1620 N.am  1 <1>  -0.5390 
 13 H       -1.5970     3.5100    -0.3970 H     1 <1>   0.3700 
 14 C       -0.0640     4.8470    -0.0940 C.2   1 <1>   0.5690 
 15 O        0.3520     5.9890     0.0460 O.2   1 <1>  -0.5700 
 16 C        0.8530     3.6390    -0.2650 C.3   1 <1>   0.0610 
 17 H        0.6730     3.2320    -1.2690 H     1 <1>   0.0000 
 18 H        0.5270     2.8730     0.4510 H     1 <1>   0.0000 
 19 C        2.3600     3.8730    -0.0820 C.3   1 <1>   0.0000 
 20 H        2.8400     2.8940    -0.2140 H     1 <1>   0.0000 
 21 C        2.9530     4.7960    -1.1480 C.3   1 <1>   0.0000 
 22 H        4.0460     4.8080    -1.0760 H     1 <1>   0.0000 
 23 H        2.6070     5.8280    -1.0420 H     1 <1>   0.0000 
 24 H        2.6900     4.4490    -2.1530 H     1 <1>   0.0000 
 25 C        2.7140     4.3510     1.3260 C.3   1 <1>   0.0000 
 26 H        2.2950     3.6790     2.0820 H     1 <1>   0.0000 
 27 H        3.8010     4.3680     1.4620 H     1 <1>   0.0000 
 28 H        2.3410     5.3600     1.5250 H     1 <1>   0.0000 
 29 C       -2.7910     6.4850     0.4290 C.2   1 <1>  -0.0380 
 30 C       -1.8490     7.5140     0.9630 C.3   1 <1>   0.1380 
 31 H       -1.3790     8.0710     0.1470 H     1 <1>   0.0000 
 32 H       -1.0820     7.0630     1.5980 H     1 <1>   0.0000 
 33 H       -2.3690     8.2320     1.6050 H     1 <1>   0.0000 
 34 N       -4.1560     6.7560     0.3320 N.pl3 1 <1>  -0.4890 
 35 C       -4.7900     8.0550     0.3860 C.3   1 <1>   0.3690 
 36 H       -4.1170     8.8300     0.0020 H     1 <1>   0.0000 
 37 H       -5.0450     8.3200     1.4170 H     1 <1>   0.0000 
 38 H       -5.6870     8.1040    -0.2390 H     1 <1>   0.0000 
 39 C       -7.0610     6.0650     0.9280 C.ar  1 <1>  -0.1500 
 40 H       -6.6520     6.7730     1.6390 H     1 <1>   0.1500 
 41 C       -8.4410     5.8340     0.9620 C.ar  1 <1>  -0.1500 
 42 H       -9.0680     6.3950     1.6500 H     1 <1>   0.1500 
@<TRIPOS>BOND
  1   1   2  1   
  2   2   3  ar  
  3   2  41  ar  
  4   3   4  1   
  5   3   5  ar  
  6   5   6  1   
  7   5   7  ar  
  8   7   8  1   
  9   7  39  ar  
 10   8   9  am  
 11   8  34  1   
 12   9  10  2   
 13   9  11  1   
 14  11  12  1   
 15  11  29  2   
 16  12  13  1   
 17  12  14  am  
 18  14  15  2   
 19  14  16  1   
 20  16  17  1   
 21  16  18  1   
 22  16  19  1   
 23  19  20  1   
 24  19  21  1   
 25  19  25  1   
 26  21  22  1   
 27  21  23  1   
 28  21  24  1   
 29  25  26  1   
 30  25  27  1   
 31  25  28  1   
 32  29  30  1   
 33  29  34  1   
 34  30  31  1   
 35  30  32  1   
 36  30  33  1   
 37  34  35  1   
 38  35  36  1   
 39  35  37  1   
 40  35  38  1   
 41  39  40  1   
 42  39  41  ar  
 43  41  42  1   
@<TRIPOS>SUBSTRUCTURE
  1 ****  11 GROUP 4 **** **** 0

# MOE 2022.02 (io_trps.svl 2020.11)

@<TRIPOS>MOLECULE
CEP140
36 38 1 0 0 
SMALL
USER_CHARGES


@<TRIPOS>ATOM
  1 H        1.5100    -2.7500     1.0130 H     1 <1>   0.1500 
  2 C        0.6930    -2.1130     0.6890 C.ar  1 <1>  -0.1500 
  3 C        0.9210    -0.8540     0.1240 C.ar  1 <1>   0.1170 
  4 N        2.2040    -0.2980    -0.0690 N.am  1 <1>  -0.5470 
  5 H        2.2330     0.6240    -0.4880 H     1 <1>   0.3700 
  6 C        3.4250    -0.8700     0.2520 C.2   1 <1>   0.5690 
  7 O        3.6050    -1.9740     0.7520 O.2   1 <1>  -0.5700 
  8 C        4.5790     0.0490    -0.0910 C.3   1 <1>   0.0610 
  9 H        4.4300     1.0040     0.4260 H     1 <1>   0.0000 
 10 H        4.5570     0.2480    -1.1690 H     1 <1>   0.0000 
 11 C        5.9110    -0.5690     0.3090 C.3   1 <1>   0.2560 
 12 H        5.9450    -0.7880     1.3830 H     1 <1>   0.0000 
 13 H        6.0910    -1.5100    -0.2240 H     1 <1>   0.0000 
 14 N        7.0190     0.3230     0.0100 N.pl3 1 <1>   0.0480 
 15 C        7.7140     0.3510    -1.1690 C.2   1 <1>  -0.3020 
 16 H        7.4770    -0.3250    -1.9810 H     1 <1>   0.1500 
 17 C        8.6750     1.3340    -1.0700 C.2   1 <1>  -0.1500 
 18 H        9.3870     1.6010    -1.8390 H     1 <1>   0.1500 
 19 C        8.5540     1.9130     0.2160 C.2   1 <1>  -0.1500 
 20 H        9.1570     2.7130     0.6270 H     1 <1>   0.1500 
 21 C        7.5260     1.2660     0.8650 C.2   1 <1>  -0.3020 
 22 H        7.1210     1.4020     1.8590 H     1 <1>   0.1500 
 23 C       -0.1780    -0.0790    -0.2760 C.ar  1 <1>  -0.1500 
 24 H       -0.0250     0.9020    -0.7180 H     1 <1>   0.1500 
 25 C       -1.4770    -0.5640    -0.1080 C.ar  1 <1>   0.1170 
 26 C       -1.6910    -1.8210     0.4590 C.ar  1 <1>   0.1170 
 27 C       -0.6090    -2.5980     0.8570 C.ar  1 <1>  -0.1500 
 28 H       -0.7540    -3.5800     1.3000 H     1 <1>   0.1500 
 29 N       -2.9920    -2.3010     0.6280 N.am  1 <1>  -0.5470 
 30 H       -3.1590    -3.2100     1.0380 H     1 <1>   0.3700 
 31 C       -4.1120    -1.5900     0.2590 C.2   1 <1>   0.6300 
 32 O       -5.2410    -2.0360     0.4200 O.2   1 <1>  -0.5700 
 33 C       -3.8770    -0.1960    -0.3730 C.2   1 <1>   0.6300 
 34 O       -4.8100     0.5080    -0.7350 O.2   1 <1>  -0.5700 
 35 N       -2.5680     0.2130    -0.5080 N.am  1 <1>  -0.5470 
 36 H       -2.4360     1.1260    -0.9210 H     1 <1>   0.3700 
@<TRIPOS>BOND
  1   1   2  1   
  2   2   3  ar  
  3   2  27  ar  
  4   3   4  1   
  5   3  23  ar  
  6   4   5  1   
  7   4   6  am  
  8   6   7  2   
  9   6   8  1   
 10   8   9  1   
 11   8  10  1   
 12   8  11  1   
 13  11  12  1   
 14  11  13  1   
 15  11  14  1   
 16  14  15  1   
 17  14  21  1   
 18  15  16  1   
 19  15  17  2   
 20  17  18  1   
 21  17  19  1   
 22  19  20  1   
 23  19  21  2   
 24  21  22  1   
 25  23  24  1   
 26  23  25  ar  
 27  25  26  ar  
 28  25  35  1   
 29  26  27  ar  
 30  26  29  1   
 31  27  28  1   
 32  29  30  1   
 33  29  31  am  
 34  31  32  2   
 35  31  33  1   
 36  33  34  2   
 37  33  35  am  
 38  35  36  1   
@<TRIPOS>SUBSTRUCTURE
  1 ****   3 GROUP 4 **** **** 0

# MOE 2022.02 (io_trps.svl 2020.11)

@<TRIPOS>MOLECULE
CEP141
35 36 1 0 0 
SMALL
USER_CHARGES


@<TRIPOS>ATOM
  1 H       -4.6430    -2.3890     0.4800 H     1 <1>   0.1500 
  2 C       -4.5170    -1.3320     0.2480 C.2   1 <1>  -0.1050 
  3 C       -3.2780    -0.8460     0.0410 C.2   1 <1>   0.0790 
  4 C       -3.0000     0.4960    -0.3230 C.1   1 <1>   0.4920 
  5 N       -2.6950     1.5770    -0.6150 N.1   1 <1>  -0.5570 
  6 C       -2.1360    -1.8250     0.1900 C.2   1 <1>   0.6160 
  7 O       -2.3700    -2.9890     0.5050 O.2   1 <1>  -0.5700 
  8 N       -0.8740    -1.3020    -0.0450 N.am  1 <1>  -0.5470 
  9 H       -0.7870    -0.3230    -0.2950 H     1 <1>   0.3700 
 10 C        0.3620    -1.9870     0.0230 C.ar  1 <1>   0.1170 
 11 C        1.5180    -1.2430    -0.2470 C.ar  1 <1>  -0.1500 
 12 H        1.4540    -0.1870    -0.4970 H     1 <1>   0.1500 
 13 C        2.7880    -1.8350    -0.2000 C.ar  1 <1>  -0.1500 
 14 H        3.6500    -1.2130    -0.4170 H     1 <1>   0.1500 
 15 C        2.9180    -3.1840     0.1170 C.ar  1 <1>   0.0820 
 16 O        4.0880    -3.8860     0.1980 O.3   1 <1>  -0.3630 
 17 C        5.2900    -3.1620    -0.0320 C.3   1 <1>   0.2800 
 18 H        6.1270    -3.8590     0.0810 H     1 <1>   0.0000 
 19 H        5.3230    -2.7660    -1.0530 H     1 <1>   0.0000 
 20 H        5.4180    -2.3640     0.7060 H     1 <1>   0.0000 
 21 C        1.7690    -3.9290     0.3830 C.ar  1 <1>  -0.1500 
 22 H        1.8570    -4.9840     0.6310 H     1 <1>   0.1500 
 23 C        0.5000    -3.3380     0.3380 C.ar  1 <1>  -0.1500 
 24 H       -0.3540    -3.9710     0.5560 H     1 <1>   0.1500 
 25 C       -5.7430    -0.6110     0.1590 C.2   1 <1>   0.0950 
 26 O       -6.9310    -1.2880    -0.0280 O.3   1 <1>  -0.2800 
 27 C       -7.9510    -0.3940    -0.0700 C.2   1 <1>  -0.0400 
 28 C       -9.3010    -0.9530    -0.2750 C.3   1 <1>   0.1800 
 29 H      -10.0620    -0.1680    -0.2270 H     1 <1>   0.0000 
 30 H       -9.5300    -1.6970     0.4940 H     1 <1>   0.0000 
 31 H       -9.3710    -1.4350    -1.2550 H     1 <1>   0.0000 
 32 C       -7.4650     0.8770     0.0990 C.2   1 <1>  -0.1500 
 33 H       -8.0440     1.7900     0.1180 H     1 <1>   0.1500 
 34 C       -6.0630     0.7410     0.2540 C.2   1 <1>  -0.1500 
 35 H       -5.3770     1.5580     0.4280 H     1 <1>   0.1500 
@<TRIPOS>BOND
  1   1   2  1   
  2   2   3  2   
  3   2  25  1   
  4   3   4  1   
  5   3   6  1   
  6   4   5  3   
  7   6   7  2   
  8   6   8  am  
  9   8   9  1   
 10   8  10  1   
 11  10  11  ar  
 12  10  23  ar  
 13  11  12  1   
 14  11  13  ar  
 15  13  14  1   
 16  13  15  ar  
 17  15  16  1   
 18  15  21  ar  
 19  16  17  1   
 20  17  18  1   
 21  17  19  1   
 22  17  20  1   
 23  21  22  1   
 24  21  23  ar  
 25  23  24  1   
 26  25  26  1   
 27  25  34  2   
 28  26  27  1   
 29  27  28  1   
 30  27  32  2   
 31  28  29  1   
 32  28  30  1   
 33  28  31  1   
 34  32  33  1   
 35  32  34  1   
 36  34  35  1   
@<TRIPOS>SUBSTRUCTURE
  1 ****   6 GROUP 4 **** **** 0

# MOE 2022.02 (io_trps.svl 2020.11)

@<TRIPOS>MOLECULE
CEP142
34 36 1 0 0 
SMALL
USER_CHARGES


@<TRIPOS>ATOM
  1 H       -2.1790     2.0760     0.4890 H     1 <1>   0.1500 
  2 C       -1.2200     2.5820     0.4050 C.ar  1 <1>  -0.1500 
  3 C       -0.0400     1.8510     0.4420 C.ar  1 <1>  -0.1500 
  4 H       -0.0710     0.7690     0.5520 H     1 <1>   0.1500 
  5 C        1.1970     2.4990     0.3370 C.ar  1 <1>  -0.1500 
  6 H        2.0790     1.8670     0.3510 H     1 <1>   0.1500 
  7 C        1.2840     3.8930     0.1990 C.ar  1 <1>   0.1170 
  8 C        0.0730     4.6100     0.1430 C.ar  1 <1>   0.1170 
  9 C       -1.1650     3.9630     0.2540 C.ar  1 <1>  -0.1500 
 10 H       -2.0940     4.5260     0.2210 H     1 <1>   0.1500 
 11 N        0.0560     5.9990    -0.0050 N.am  1 <1>  -0.5470 
 12 H       -0.8190     6.5070     0.0170 H     1 <1>   0.3700 
 13 C        1.1780     6.7450    -0.1860 C.2   1 <1>   0.5690 
 14 O        1.1070     7.9650    -0.3260 O.2   1 <1>  -0.5700 
 15 C        2.4880     5.9910    -0.3260 C.3   1 <1>   0.3610 
 16 H        3.2370     6.5570     0.2400 H     1 <1>   0.0000 
 17 H        2.7610     6.0200    -1.3880 H     1 <1>   0.0000 
 18 N        2.5410     4.5870     0.0960 N.am  1 <1>  -0.4770 
 19 C        3.7770     3.9780     0.3870 C.2   1 <1>   0.5690 
 20 O        3.8950     2.9260     1.0190 O.2   1 <1>  -0.5700 
 21 C        5.0290     4.7210    -0.0920 C.3   1 <1>   0.2040 
 22 H        5.2720     5.4920     0.6500 H     1 <1>   0.0000 
 23 H        4.8320     5.2370    -1.0380 H     1 <1>   0.0000 
 24 C        6.2310     3.8260    -0.3040 C.ar  1 <1>  -0.1440 
 25 C        7.1490     3.6090     0.7360 C.ar  1 <1>  -0.1500 
 26 H        7.0030     4.0770     1.7070 H     1 <1>   0.1500 
 27 C        8.2520     2.7760     0.5410 C.ar  1 <1>  -0.1500 
 28 H        8.9640     2.6010     1.3410 H     1 <1>   0.1500 
 29 C        8.4340     2.1560    -0.6890 C.ar  1 <1>   0.1900 
 30 F        9.4930     1.3560    -0.8750 F     1 <1>  -0.1900 
 31 C        7.5320     2.3500    -1.7280 C.ar  1 <1>  -0.1500 
 32 H        7.6920     1.8490    -2.6780 H     1 <1>   0.1500 
 33 C        6.4280     3.1830    -1.5370 C.ar  1 <1>  -0.1500 
 34 H        5.7220     3.3210    -2.3530 H     1 <1>   0.1500 
@<TRIPOS>BOND
  1   1   2  1   
  2   2   3  ar  
  3   2   9  ar  
  4   3   4  1   
  5   3   5  ar  
  6   5   6  1   
  7   5   7  ar  
  8   7   8  ar  
  9   7  18  1   
 10   8   9  ar  
 11   8  11  1   
 12   9  10  1   
 13  11  12  1   
 14  11  13  am  
 15  13  14  2   
 16  13  15  1   
 17  15  16  1   
 18  15  17  1   
 19  15  18  1   
 20  18  19  am  
 21  19  20  2   
 22  19  21  1   
 23  21  22  1   
 24  21  23  1   
 25  21  24  1   
 26  24  25  ar  
 27  24  33  ar  
 28  25  26  1   
 29  25  27  ar  
 30  27  28  1   
 31  27  29  ar  
 32  29  30  1   
 33  29  31  ar  
 34  31  32  1   
 35  31  33  ar  
 36  33  34  1   
@<TRIPOS>SUBSTRUCTURE
  1 ****  19 GROUP 4 **** **** 0

# MOE 2022.02 (io_trps.svl 2020.11)

@<TRIPOS>MOLECULE
CEP143
32 33 1 0 0 
SMALL
USER_CHARGES


@<TRIPOS>ATOM
  1 H        0.6060    -3.3540     0.5590 H     1 <1>   0.1500 
  2 C        0.5100    -2.3130     0.2490 C.2   1 <1>  -0.1780 
  3 C       -0.7080    -1.7980    -0.0160 C.2   1 <1>   0.0790 
  4 C       -0.9000    -0.4630    -0.4630 C.1   1 <1>   0.4920 
  5 N       -1.1350     0.6180    -0.8110 N.1   1 <1>  -0.5570 
  6 C       -1.8950    -2.7130     0.1560 C.2   1 <1>   0.6160 
  7 O       -1.7130    -3.8890     0.4610 O.2   1 <1>  -0.5700 
  8 N       -3.1330    -2.1250    -0.0490 N.am  1 <1>  -0.5470 
  9 H       -3.1680    -1.1400    -0.2910 H     1 <1>   0.3700 
 10 C       -4.4010    -2.7490     0.0420 C.ar  1 <1>   0.1170 
 11 C       -4.5940    -4.0990     0.3510 C.ar  1 <1>  -0.1500 
 12 H       -3.7610    -4.7680     0.5440 H     1 <1>   0.1500 
 13 C       -5.8820    -4.6440     0.4230 C.ar  1 <1>  -0.1500 
 14 H       -6.0070    -5.6970     0.6660 H     1 <1>   0.1500 
 15 C       -6.9980    -3.8450     0.1880 C.ar  1 <1>  -0.1500 
 16 H       -7.9910    -4.2860     0.2490 H     1 <1>   0.1500 
 17 C       -6.8130    -2.4950    -0.1220 C.ar  1 <1>   0.1330 
 18 N       -7.9810    -1.6410    -0.3700 N.pl3 1 <1>   0.9070 
 19 O       -7.7750    -0.4480    -0.6370 O.2   1 <1>  -0.5200 
 20 O       -9.1030    -2.1620    -0.2990 O.2   1 <1>  -0.5200 
 21 C       -5.5240    -1.9440    -0.1970 C.ar  1 <1>  -0.1500 
 22 H       -5.3980    -0.8910    -0.4390 H     1 <1>   0.1500 
 23 C        1.7980    -1.6150     0.1380 C.ar  1 <1>   0.0280 
 24 C        2.8240    -2.1640    -0.6280 C.ar  1 <1>   0.1600 
 25 H        2.6890    -3.0960    -1.1710 H     1 <1>   0.1500 
 26 N        4.0510    -1.6090    -0.7720 N.ar  1 <1>  -0.6200 
 27 C        4.2730    -0.4530    -0.1120 C.ar  1 <1>   0.1600 
 28 H        5.2630    -0.0260    -0.2440 H     1 <1>   0.1500 
 29 C        3.3280     0.1680     0.6890 C.ar  1 <1>  -0.1500 
 30 H        3.5630     1.0930     1.2030 H     1 <1>   0.1500 
 31 C        2.0750    -0.4280     0.8190 C.ar  1 <1>  -0.1500 
 32 H        1.3340     0.0420     1.4610 H     1 <1>   0.1500 
@<TRIPOS>BOND
  1   1   2  1   
  2   2   3  2   
  3   2  23  1   
  4   3   4  1   
  5   3   6  1   
  6   4   5  3   
  7   6   7  2   
  8   6   8  am  
  9   8   9  1   
 10   8  10  1   
 11  10  11  ar  
 12  10  21  ar  
 13  11  12  1   
 14  11  13  ar  
 15  13  14  1   
 16  13  15  ar  
 17  15  16  1   
 18  15  17  ar  
 19  17  18  1   
 20  17  21  ar  
 21  18  19  2   
 22  18  20  2   
 23  21  22  1   
 24  23  24  ar  
 25  23  31  ar  
 26  24  25  1   
 27  24  26  ar  
 28  26  27  ar  
 29  27  28  1   
 30  27  29  ar  
 31  29  30  1   
 32  29  31  ar  
 33  31  32  1   
@<TRIPOS>SUBSTRUCTURE
  1 ****   6 GROUP 4 **** **** 0

# MOE 2022.02 (io_trps.svl 2020.11)

@<TRIPOS>MOLECULE
CEP144
36 37 1 0 0 
SMALL
USER_CHARGES


@<TRIPOS>ATOM
  1 H        0.2000     0.5880    -1.3900 H     1 <1>   0.1500 
  2 C       -0.2730    -0.2940    -0.9610 C.ar  1 <1>  -0.1500 
  3 C       -1.6690    -0.3780    -0.9280 C.ar  1 <1>  -0.1500 
  4 H       -2.2550     0.4310    -1.3570 H     1 <1>   0.1500 
  5 C       -2.2870    -1.5110    -0.3840 C.ar  1 <1>   0.0860 
  6 C       -3.7700    -1.6440    -0.3280 C.2   1 <1>   0.5440 
  7 O       -4.2540    -2.7560    -0.5040 O.2   1 <1>  -0.5700 
  8 N       -4.4430    -0.4760    -0.0310 N.am  1 <1>  -0.5470 
  9 H       -3.8940     0.3380     0.1940 H     1 <1>   0.3700 
 10 C       -5.8410    -0.2660     0.0070 C.ar  1 <1>   0.1170 
 11 C       -6.7580    -1.2260    -0.4290 C.ar  1 <1>  -0.1500 
 12 H       -6.4370    -2.1980    -0.7900 H     1 <1>   0.1500 
 13 C       -8.1290    -0.9530    -0.4390 C.ar  1 <1>  -0.1500 
 14 H       -8.8140    -1.7210    -0.7880 H     1 <1>   0.1500 
 15 C       -8.6130     0.2820    -0.0180 C.ar  1 <1>   0.1000 
 16 N       -9.9690     0.5510    -0.0330 N.pl3 1 <1>  -0.9000 
 17 H      -10.3230     1.4460     0.2740 H     1 <1>   0.4000 
 18 H      -10.6270    -0.1460    -0.3530 H     1 <1>   0.4000 
 19 C       -7.6990     1.2400     0.4250 C.ar  1 <1>  -0.1500 
 20 H       -8.0700     2.2010     0.7700 H     1 <1>   0.1500 
 21 C       -6.3170     0.9850     0.4600 C.ar  1 <1>   0.1000 
 22 N       -5.4750     1.9750     0.9620 N.pl3 1 <1>  -0.9000 
 23 H       -4.5240     1.7980     1.2370 H     1 <1>   0.4000 
 24 H       -5.8380     2.9120     1.0890 H     1 <1>   0.4000 
 25 C       -1.5030    -2.5680     0.0970 C.ar  1 <1>  -0.1500 
 26 H       -1.9790    -3.4600     0.5000 H     1 <1>   0.1500 
 27 C       -0.1070    -2.4820     0.0660 C.ar  1 <1>  -0.1500 
 28 H        0.4780    -3.3140     0.4490 H     1 <1>   0.1500 
 29 C        0.5150    -1.3410    -0.4600 C.ar  1 <1>   0.0860 
 30 C        1.9960    -1.1940    -0.5170 C.2   1 <1>   0.6340 
 31 O        2.5560    -0.2290    -1.0140 O.2   1 <1>  -0.5700 
 32 O        2.6050    -2.2580     0.0600 O.3   1 <1>  -0.4300 
 33 C        4.0320    -2.1830     0.0550 C.3   1 <1>   0.2800 
 34 H        4.4200    -3.0810     0.5410 H     1 <1>   0.0000 
 35 H        4.3720    -1.3090     0.6190 H     1 <1>   0.0000 
 36 H        4.4100    -2.1540    -0.9720 H     1 <1>   0.0000 
@<TRIPOS>BOND
  1   1   2  1   
  2   2   3  ar  
  3   2  29  ar  
  4   3   4  1   
  5   3   5  ar  
  6   5   6  1   
  7   5  25  ar  
  8   6   7  2   
  9   6   8  am  
 10   8   9  1   
 11   8  10  1   
 12  10  11  ar  
 13  10  21  ar  
 14  11  12  1   
 15  11  13  ar  
 16  13  14  1   
 17  13  15  ar  
 18  15  16  1   
 19  15  19  ar  
 20  16  17  1   
 21  16  18  1   
 22  19  20  1   
 23  19  21  ar  
 24  21  22  1   
 25  22  23  1   
 26  22  24  1   
 27  25  26  1   
 28  25  27  ar  
 29  27  28  1   
 30  27  29  ar  
 31  29  30  1   
 32  30  31  2   
 33  30  32  1   
 34  32  33  1   
 35  33  34  1   
 36  33  35  1   
 37  33  36  1   
@<TRIPOS>SUBSTRUCTURE
  1 ****   6 GROUP 4 **** **** 0

# MOE 2022.02 (io_trps.svl 2020.11)

@<TRIPOS>MOLECULE
CEP145
31 32 1 0 0 
SMALL
USER_CHARGES


@<TRIPOS>ATOM
  1 H       -4.5020    -7.2910     1.7070 H     1 <1>   0.1500 
  2 C       -4.4800    -6.2980     1.2620 C.ar  1 <1>  -0.1500 
  3 C       -5.6170    -5.4940     1.2950 C.ar  1 <1>  -0.1500 
  4 H       -6.5260    -5.8570     1.7680 H     1 <1>   0.1500 
  5 C       -5.5870    -4.2240     0.7220 C.ar  1 <1>  -0.1500 
  6 H       -6.4780    -3.6050     0.7530 H     1 <1>   0.1500 
  7 C       -4.4150    -3.7680     0.1150 C.ar  1 <1>   0.1170 
  8 C       -3.2600    -4.5660     0.0690 C.ar  1 <1>   0.0280 
  9 C       -3.3070    -5.8380     0.6540 C.ar  1 <1>  -0.1500 
 10 H       -2.4400    -6.4950     0.6430 H     1 <1>   0.1500 
 11 C       -2.0530    -4.0170    -0.5790 C.2   1 <1>  -0.0140 
 12 C       -0.7920    -4.7960    -0.7460 C.2   1 <1>   0.6160 
 13 O       -0.7880    -5.9390    -1.1860 O.2   1 <1>  -0.5700 
 14 N        0.3430    -4.1440    -0.3390 N.am  1 <1>  -0.7300 
 15 H        0.3040    -3.2110     0.0610 H     1 <1>   0.3700 
 16 C        1.6490    -4.7720    -0.4540 C.3   1 <1>   0.3610 
 17 H        1.6530    -5.6700     0.1710 H     1 <1>   0.0000 
 18 H        1.8130    -5.0370    -1.5030 H     1 <1>   0.0000 
 19 C        2.7390    -3.8220     0.0100 C.2   1 <1>   0.6590 
 20 O        2.5340    -2.6920     0.4390 O.2   1 <1>  -0.5700 
 21 O        3.9630    -4.4080    -0.1190 O.3   1 <1>  -0.4300 
 22 C        5.0520    -3.5790     0.2910 C.3   1 <1>   0.2800 
 23 H        5.9790    -4.1410     0.1450 H     1 <1>   0.0000 
 24 H        5.0950    -2.6730    -0.3220 H     1 <1>   0.0000 
 25 H        4.9630    -3.3270     1.3530 H     1 <1>   0.0000 
 26 C       -2.0870    -2.7920    -1.1280 C.2   1 <1>  -0.1360 
 27 H       -1.2500    -2.3520    -1.6590 H     1 <1>   0.1500 
 28 C       -3.3020    -1.9530    -1.0710 C.2   1 <1>   0.6160 
 29 O       -3.3080    -0.8290    -1.5600 O.2   1 <1>  -0.5700 
 30 N       -4.3950    -2.4890    -0.4540 N.am  1 <1>  -0.5470 
 31 H       -5.2200    -1.9040    -0.4260 H     1 <1>   0.3700 
@<TRIPOS>BOND
  1   1   2  1   
  2   2   3  ar  
  3   2   9  ar  
  4   3   4  1   
  5   3   5  ar  
  6   5   6  1   
  7   5   7  ar  
  8   7   8  ar  
  9   7  30  1   
 10   8   9  ar  
 11   8  11  1   
 12   9  10  1   
 13  11  12  1   
 14  11  26  2   
 15  12  13  2   
 16  12  14  am  
 17  14  15  1   
 18  14  16  1   
 19  16  17  1   
 20  16  18  1   
 21  16  19  1   
 22  19  20  2   
 23  19  21  1   
 24  21  22  1   
 25  22  23  1   
 26  22  24  1   
 27  22  25  1   
 28  26  27  1   
 29  26  28  1   
 30  28  29  2   
 31  28  30  am  
 32  30  31  1   
@<TRIPOS>SUBSTRUCTURE
  1 ****  11 GROUP 4 **** **** 0

# MOE 2022.02 (io_trps.svl 2020.11)

@<TRIPOS>MOLECULE
CEP146
32 32 1 0 0 
SMALL
USER_CHARGES


@<TRIPOS>ATOM
  1 H       -4.6100    -2.2600     0.0190 H     1 <1>   0.1500 
  2 C       -4.5790    -1.1750     0.0480 C.ar  1 <1>  -0.1500 
  3 C       -3.3180    -0.5590     0.0240 C.ar  1 <1>  -0.1500 
  4 H       -2.4560    -1.2190    -0.0230 H     1 <1>   0.1500 
  5 C       -3.1790     0.8340     0.0590 C.ar  1 <1>   0.1170 
  6 N       -1.9010     1.4530     0.0340 N.am  1 <1>  -0.5470 
  7 H       -1.9100     2.4740     0.0680 H     1 <1>   0.3700 
  8 C       -0.6450     0.8590    -0.0290 C.2   1 <1>   0.5690 
  9 O       -0.4240    -0.3460    -0.0770 O.2   1 <1>  -0.5700 
 10 C        0.4760     1.9150    -0.0320 C.3   1 <1>   0.3410 
 11 H        0.3120     2.5720    -0.8940 H     1 <1>   0.0000 
 12 H        0.3800     2.5040     0.8890 H     1 <1>   0.0000 
 13 O        1.7810     1.3650    -0.1030 O.3   1 <1>  -0.5600 
 14 C        2.7890     2.3700    -0.0960 C.3   1 <1>   0.2800 
 15 H        2.6540     3.0370    -0.9550 H     1 <1>   0.0000 
 16 H        2.7220     2.9560     0.8270 H     1 <1>   0.0000 
 17 C        4.1440     1.6940    -0.1770 C.3   1 <1>   0.0000 
 18 H        4.2850     1.0120     0.6680 H     1 <1>   0.0000 
 19 H        4.9490     2.4330    -0.1740 H     1 <1>   0.0000 
 20 H        4.2200     1.0910    -1.0880 H     1 <1>   0.0000 
 21 C       -4.3670     1.6010     0.1200 C.ar  1 <1>   0.1330 
 22 N       -4.3410     3.0740     0.1590 N.pl3 1 <1>   0.9070 
 23 O       -3.2350     3.6400     0.1640 O.2   1 <1>  -0.5200 
 24 O       -5.4230     3.6750     0.1850 O.2   1 <1>  -0.5200 
 25 C       -5.6300     0.9790     0.1440 C.ar  1 <1>  -0.1500 
 26 H       -6.5470     1.5650     0.1910 H     1 <1>   0.1500 
 27 C       -5.7380    -0.4090     0.1080 C.ar  1 <1>   0.0820 
 28 O       -7.0180    -0.8840     0.1370 O.3   1 <1>  -0.3630 
 29 C       -7.1840    -2.2970     0.1030 C.3   1 <1>   0.2800 
 30 H       -8.2580    -2.5080     0.1310 H     1 <1>   0.0000 
 31 H       -6.7860    -2.7190    -0.8250 H     1 <1>   0.0000 
 32 H       -6.7280    -2.7690     0.9800 H     1 <1>   0.0000 
@<TRIPOS>BOND
  1   1   2  1   
  2   2   3  ar  
  3   2  27  ar  
  4   3   4  1   
  5   3   5  ar  
  6   5   6  1   
  7   5  21  ar  
  8   6   7  1   
  9   6   8  am  
 10   8   9  2   
 11   8  10  1   
 12  10  11  1   
 13  10  12  1   
 14  10  13  1   
 15  13  14  1   
 16  14  15  1   
 17  14  16  1   
 18  14  17  1   
 19  17  18  1   
 20  17  19  1   
 21  17  20  1   
 22  21  22  1   
 23  21  25  ar  
 24  22  23  2   
 25  22  24  2   
 26  25  26  1   
 27  25  27  ar  
 28  27  28  1   
 29  28  29  1   
 30  29  30  1   
 31  29  31  1   
 32  29  32  1   
@<TRIPOS>SUBSTRUCTURE
  1 ****   5 GROUP 4 **** **** 0

# MOE 2022.02 (io_trps.svl 2020.11)

@<TRIPOS>MOLECULE
CEP147
41 43 1 0 0 
SMALL
USER_CHARGES


@<TRIPOS>ATOM
  1 H        1.3810     2.7730    -1.1140 H     1 <1>   0.1500 
  2 C        0.4010     3.1860    -0.8920 C.ar  1 <1>  -0.1500 
  3 C       -0.5650     3.2650    -1.8920 C.ar  1 <1>  -0.1500 
  4 H       -0.3410     2.9140    -2.8960 H     1 <1>   0.1500 
  5 C       -1.8300     3.7950    -1.6120 C.ar  1 <1>  -0.1500 
  6 H       -2.5500     3.8370    -2.4220 H     1 <1>   0.1500 
  7 C       -2.1380     4.2500    -0.3290 C.ar  1 <1>   0.1170 
  8 N       -3.3840     4.8000     0.0390 N.am  1 <1>  -0.5470 
  9 H       -3.4630     5.0920     1.0050 H     1 <1>   0.3700 
 10 C       -4.5070     4.9720    -0.7620 C.2   1 <1>   0.5690 
 11 O       -4.6120     4.6210    -1.9350 O.2   1 <1>  -0.5700 
 12 C       -5.6530     5.6740    -0.0260 C.3   1 <1>   0.3610 
 13 H       -5.7710     6.6690    -0.4670 H     1 <1>   0.0000 
 14 H       -5.4380     5.8000     1.0410 H     1 <1>   0.0000 
 15 N       -6.8730     4.8970    -0.1620 N.am  1 <1>  -0.2980 
 16 N       -7.0320     3.8550     0.7230 N.2   1 <1>  -0.5120 
 17 C       -8.0810     3.1010     0.5940 C.2   1 <1>   0.3750 
 18 C       -9.1220     3.2800    -0.4490 C.2   1 <1>  -0.1240 
 19 C       -8.9480     4.3210    -1.2710 C.2   1 <1>  -0.1360 
 20 H       -9.6400     4.5600    -2.0690 H     1 <1>   0.1500 
 21 C       -7.7840     5.2210    -1.1530 C.2   1 <1>   0.6160 
 22 O       -7.7020     6.1870    -1.9070 O.2   1 <1>  -0.5700 
 23 C      -10.2870     2.3430    -0.5470 C.3   1 <1>   0.1380 
 24 H      -10.8640     2.3580     0.3860 H     1 <1>   0.0000 
 25 H      -10.9750     2.7020    -1.3240 H     1 <1>   0.0000 
 26 C       -9.8840     0.9130    -0.9100 C.3   1 <1>   0.0000 
 27 H      -10.7690     0.4010    -1.3080 H     1 <1>   0.0000 
 28 H       -9.1400     0.9150    -1.7170 H     1 <1>   0.0000 
 29 C       -9.3690     0.0890     0.2700 C.3   1 <1>   0.0000 
 30 H       -9.1930    -0.9360    -0.0810 H     1 <1>   0.0000 
 31 H      -10.1510     0.0200     1.0360 H     1 <1>   0.0000 
 32 C       -8.0770     0.6040     0.9030 C.3   1 <1>   0.0000 
 33 H       -7.7660    -0.1250     1.6610 H     1 <1>   0.0000 
 34 H       -7.2810     0.6360     0.1490 H     1 <1>   0.0000 
 35 C       -8.2350     1.9600     1.5810 C.3   1 <1>   0.0610 
 36 H       -9.1930     2.0490     2.1040 H     1 <1>   0.0000 
 37 H       -7.4520     2.0650     2.3430 H     1 <1>   0.0000 
 38 C       -1.1580     4.1660     0.6700 C.ar  1 <1>  -0.1500 
 39 H       -1.3620     4.5100     1.6810 H     1 <1>   0.1500 
 40 C        0.1050     3.6370     0.3910 C.ar  1 <1>  -0.1500 
 41 H        0.8550     3.5770     1.1750 H     1 <1>   0.1500 
@<TRIPOS>BOND
  1   1   2  1   
  2   2   3  ar  
  3   2  40  ar  
  4   3   4  1   
  5   3   5  ar  
  6   5   6  1   
  7   5   7  ar  
  8   7   8  1   
  9   7  38  ar  
 10   8   9  1   
 11   8  10  am  
 12  10  11  2   
 13  10  12  1   
 14  12  13  1   
 15  12  14  1   
 16  12  15  1   
 17  15  16  1   
 18  15  21  am  
 19  16  17  2   
 20  17  18  1   
 21  17  35  1   
 22  18  19  2   
 23  18  23  1   
 24  19  20  1   
 25  19  21  1   
 26  21  22  2   
 27  23  24  1   
 28  23  25  1   
 29  23  26  1   
 30  26  27  1   
 31  26  28  1   
 32  26  29  1   
 33  29  30  1   
 34  29  31  1   
 35  29  32  1   
 36  32  33  1   
 37  32  34  1   
 38  32  35  1   
 39  35  36  1   
 40  35  37  1   
 41  38  39  1   
 42  38  40  ar  
 43  40  41  1   
@<TRIPOS>SUBSTRUCTURE
  1 ****  16 GROUP 4 **** **** 0

# MOE 2022.02 (io_trps.svl 2020.11)

@<TRIPOS>MOLECULE
CEP148
35 36 1 0 0 
SMALL
USER_CHARGES


@<TRIPOS>ATOM
  1 H        6.5890     8.4220     0.2280 H     1 <1>   0.1500 
  2 C        5.5560     8.0850     0.1950 C.ar  1 <1>  -0.1500 
  3 C        5.2670     6.7230     0.1680 C.ar  1 <1>  -0.1500 
  4 H        6.0720     5.9930     0.1780 H     1 <1>   0.1500 
  5 C        3.9390     6.2960     0.1260 C.ar  1 <1>  -0.1500 
  6 H        3.7170     5.2320     0.1050 H     1 <1>   0.1500 
  7 C        2.8920     7.2220     0.1130 C.ar  1 <1>   0.0820 
  8 O        1.6400     6.6690     0.0720 O.3   1 <1>  -0.3630 
  9 C        0.5340     7.5740     0.0580 C.3   1 <1>   0.2800 
 10 H        0.5420     8.1920     0.9640 H     1 <1>   0.0000 
 11 H        0.5850     8.2170    -0.8300 H     1 <1>   0.0000 
 12 C       -0.7420     6.7450     0.0160 C.3   1 <1>   0.0610 
 13 H       -0.7840     6.0780     0.8850 H     1 <1>   0.0000 
 14 H       -0.7450     6.1070    -0.8760 H     1 <1>   0.0000 
 15 C       -1.9770     7.6230     0.0020 C.2   1 <1>   0.5690 
 16 O       -1.9020     8.8460     0.0120 O.2   1 <1>  -0.5700 
 17 N       -3.1390     6.8680    -0.0230 N.am  1 <1>  -0.5470 
 18 H       -3.0110     5.8550    -0.0270 H     1 <1>   0.3700 
 19 C       -4.4890     7.3140    -0.0420 C.ar  1 <1>   0.1170 
 20 C       -4.8050     8.6800    -0.0390 C.ar  1 <1>  -0.1500 
 21 H       -4.0360     9.4470    -0.0220 H     1 <1>   0.1500 
 22 C       -6.1330     9.1250    -0.0590 C.ar  1 <1>  -0.1500 
 23 H       -6.3410    10.1930    -0.0560 H     1 <1>   0.1500 
 24 C       -7.1810     8.2130    -0.0820 C.ar  1 <1>  -0.1500 
 25 H       -8.2110     8.5650    -0.0970 H     1 <1>   0.1500 
 26 C       -6.9050     6.8490    -0.0850 C.ar  1 <1>  -0.1500 
 27 H       -7.7410     6.1520    -0.1030 H     1 <1>   0.1500 
 28 C       -5.5690     6.3970    -0.0660 C.ar  1 <1>   0.1330 
 29 N       -5.3540     4.9390    -0.0710 N.pl3 1 <1>   0.9070 
 30 O       -4.1860     4.5180    -0.0520 O.2   1 <1>  -0.5200 
 31 O       -6.3520     4.2040    -0.0930 O.2   1 <1>  -0.5200 
 32 C        3.1870     8.5850     0.1410 C.ar  1 <1>  -0.1500 
 33 H        2.4090     9.3420     0.1310 H     1 <1>   0.1500 
 34 C        4.5180     9.0150     0.1820 C.ar  1 <1>  -0.1500 
 35 H        4.7420    10.0780     0.2040 H     1 <1>   0.1500 
@<TRIPOS>BOND
  1   1   2  1   
  2   2   3  ar  
  3   2  34  ar  
  4   3   4  1   
  5   3   5  ar  
  6   5   6  1   
  7   5   7  ar  
  8   7   8  1   
  9   7  32  ar  
 10   8   9  1   
 11   9  10  1   
 12   9  11  1   
 13   9  12  1   
 14  12  13  1   
 15  12  14  1   
 16  12  15  1   
 17  15  16  2   
 18  15  17  am  
 19  17  18  1   
 20  17  19  1   
 21  19  20  ar  
 22  19  28  ar  
 23  20  21  1   
 24  20  22  ar  
 25  22  23  1   
 26  22  24  ar  
 27  24  25  1   
 28  24  26  ar  
 29  26  27  1   
 30  26  28  ar  
 31  28  29  1   
 32  29  30  2   
 33  29  31  2   
 34  32  33  1   
 35  32  34  ar  
 36  34  35  1   
@<TRIPOS>SUBSTRUCTURE
  1 ****  15 GROUP 4 **** **** 0

# MOE 2022.02 (io_trps.svl 2020.11)

@<TRIPOS>MOLECULE
CEP149
34 36 1 0 0 
SMALL
USER_CHARGES


@<TRIPOS>ATOM
  1 H        4.6430     3.6200    -0.2170 H     1 <1>   0.1500 
  2 C        4.6190     2.5320    -0.1860 C.ar  1 <1>  -0.1500 
  3 C        5.8410     1.8390    -0.1960 C.ar  1 <1>  -0.1500 
  4 H        6.7340     2.4460    -0.2420 H     1 <1>   0.1500 
  5 C        5.8730     0.4470    -0.1590 C.ar  1 <1>   0.1170 
  6 N        7.0280    -0.3540    -0.1660 N.am  1 <1>  -0.5470 
  7 H        6.8690    -1.3560    -0.1780 H     1 <1>   0.3700 
  8 C        8.3660    -0.1080    -0.1600 C.2   1 <1>   0.5690 
  9 O        9.1300    -1.0780    -0.1950 O.2   1 <1>  -0.5700 
 10 C        8.9230     1.2820    -0.1060 C.3   1 <1>   0.0610 
 11 H       10.0150     1.2300    -0.0370 H     1 <1>   0.0000 
 12 H        8.6720     1.8250    -1.0200 H     1 <1>   0.0000 
 13 H        8.5610     1.8030     0.7840 H     1 <1>   0.0000 
 14 C        4.6510    -0.2380    -0.1190 C.ar  1 <1>  -0.1500 
 15 H        4.6250    -1.3260    -0.0920 H     1 <1>   0.1500 
 16 C        3.4310     0.4490    -0.1090 C.ar  1 <1>  -0.1500 
 17 H        2.5030    -0.1200    -0.0750 H     1 <1>   0.1500 
 18 C        3.3980     1.8470    -0.1410 C.ar  1 <1>   0.0530 
 19 C        2.1160     2.5390    -0.1310 C.2   1 <1>   0.4250 
 20 N        0.8970     2.0480    -0.0910 N.2   1 <1>  -0.5650 
 21 C        0.1130     3.1800    -0.1070 C.2   1 <1>   0.4700 
 22 C       -1.3230     3.0520    -0.0750 C.2   1 <1>   0.0460 
 23 C       -1.9600     1.7360    -0.0090 C.2   1 <1>  -0.1500 
 24 H       -1.3210     0.8570     0.0170 H     1 <1>   0.1500 
 25 C       -3.2930     1.5890     0.0210 C.2   1 <1>  -0.1360 
 26 H       -3.7820     0.6250     0.0710 H     1 <1>   0.1500 
 27 C       -4.1650     2.7870    -0.0140 C.2   1 <1>   0.6160 
 28 O       -5.3850     2.6900     0.0120 O.2   1 <1>  -0.5700 
 29 N       -3.5100     3.9920    -0.0760 N.am  1 <1>  -0.5390 
 30 H       -4.1020     4.8140    -0.1000 H     1 <1>   0.3700 
 31 C       -2.1410     4.1240    -0.1060 C.2   1 <1>  -0.0410 
 32 H       -1.7690     5.1440    -0.1550 H     1 <1>   0.1500 
 33 N        0.8100     4.3270    -0.1530 N.2   1 <1>  -0.4100 
 34 O        2.1380     3.9040    -0.1690 O.3   1 <1>  -0.0190 
@<TRIPOS>BOND
  1   1   2  1   
  2   2   3  ar  
  3   2  18  ar  
  4   3   4  1   
  5   3   5  ar  
  6   5   6  1   
  7   5  14  ar  
  8   6   7  1   
  9   6   8  am  
 10   8   9  2   
 11   8  10  1   
 12  10  11  1   
 13  10  12  1   
 14  10  13  1   
 15  14  15  1   
 16  14  16  ar  
 17  16  17  1   
 18  16  18  ar  
 19  18  19  1   
 20  19  20  2   
 21  19  34  1   
 22  20  21  1   
 23  21  22  1   
 24  21  33  2   
 25  22  23  1   
 26  22  31  2   
 27  23  24  1   
 28  23  25  2   
 29  25  26  1   
 30  25  27  1   
 31  27  28  2   
 32  27  29  am  
 33  29  30  1   
 34  29  31  1   
 35  31  32  1   
 36  33  34  1   
@<TRIPOS>SUBSTRUCTURE
  1 ****  19 GROUP 4 **** **** 0

# MOE 2022.02 (io_trps.svl 2020.11)

@<TRIPOS>MOLECULE
CEP150
26 27 1 0 0 
SMALL
USER_CHARGES


@<TRIPOS>ATOM
  1 H        4.8170    -1.1850    -0.1150 H     1 <1>   0.4500 
  2 O        3.9340    -1.6110    -0.1170 O.3   1 <1>  -0.5270 
  3 C        2.9710    -0.6390    -0.0260 C.2   1 <1>   0.1770 
  4 C        3.2090     0.6900     0.0440 C.2   1 <1>   0.1230 
  5 N        4.4030     1.3920     0.0400 N.am  1 <1>  -0.5390 
  6 H        4.2590     2.4020     0.1270 H     1 <1>   0.3700 
  7 C        5.7040     0.9550    -0.0460 C.2   1 <1>   0.5690 
  8 O        6.0280    -0.2280    -0.1340 O.2   1 <1>  -0.5700 
  9 C        6.7330     2.0680    -0.0960 C.3   1 <1>   0.3510 
 10 H        7.7380     1.6440    -0.1640 H     1 <1>   0.0000 
 11 H        6.5470     2.7110    -0.9600 H     1 <1>   0.0000 
 12 CL       6.6330     3.0430     1.3830 Cl    1 <1>  -0.2900 
 13 C        2.0000     1.5900     0.1380 C.2   1 <1>   0.4690 
 14 O        2.1550     2.8100     0.1900 O.2   1 <1>  -0.5700 
 15 C        0.6510     0.9830     0.1580 C.ar  1 <1>   0.0860 
 16 C       -0.4920     1.7840     0.2500 C.ar  1 <1>  -0.1500 
 17 H       -0.4040     2.8660     0.3100 H     1 <1>   0.1500 
 18 C       -1.7500     1.1840     0.2630 C.ar  1 <1>  -0.1500 
 19 H       -2.6450     1.7980     0.3340 H     1 <1>   0.1500 
 20 C       -1.8600    -0.2050     0.1860 C.ar  1 <1>  -0.1500 
 21 H       -2.8420    -0.6730     0.1960 H     1 <1>   0.1500 
 22 C       -0.7120    -1.0000     0.0940 C.ar  1 <1>  -0.1500 
 23 H       -0.8180    -2.0800     0.0350 H     1 <1>   0.1500 
 24 C        0.5540    -0.4110     0.0800 C.ar  1 <1>   0.1000 
 25 N        1.7120    -1.1780    -0.0100 N.pl3 1 <1>  -0.6000 
 26 H        1.6680    -2.1870    -0.0680 H     1 <1>   0.4000 
@<TRIPOS>BOND
  1   1   2  1   
  2   2   3  1   
  3   3   4  2   
  4   3  25  1   
  5   4   5  1   
  6   4  13  1   
  7   5   6  1   
  8   5   7  am  
  9   7   8  2   
 10   7   9  1   
 11   9  10  1   
 12   9  11  1   
 13   9  12  1   
 14  13  14  2   
 15  13  15  1   
 16  15  16  ar  
 17  15  24  ar  
 18  16  17  1   
 19  16  18  ar  
 20  18  19  1   
 21  18  20  ar  
 22  20  21  1   
 23  20  22  ar  
 24  22  23  1   
 25  22  24  ar  
 26  24  25  1   
 27  25  26  1   
@<TRIPOS>SUBSTRUCTURE
  1 ****   4 GROUP 4 **** **** 0

# MOE 2022.02 (io_trps.svl 2020.11)

@<TRIPOS>MOLECULE
CEP151
35 36 1 0 0 
SMALL
USER_CHARGES


@<TRIPOS>ATOM
  1 H        4.8610     4.9400     1.0070 H     1 <1>   0.1500 
  2 C        3.8320     5.1900     0.7630 C.ar  1 <1>  -0.1500 
  3 C        3.0090     5.7760     1.7200 C.ar  1 <1>  -0.1500 
  4 H        3.3940     5.9850     2.7150 H     1 <1>   0.1500 
  5 C        1.6860     6.0950     1.4020 C.ar  1 <1>  -0.1500 
  6 H        1.0650     6.5510     2.1690 H     1 <1>   0.1500 
  7 C        1.1730     5.8310     0.1250 C.ar  1 <1>   0.1170 
  8 N       -0.1700     6.1860    -0.1120 N.am  1 <1>  -0.5470 
  9 H       -0.6620     6.6080     0.6660 H     1 <1>   0.3700 
 10 C       -0.9050     6.0140    -1.2800 C.2   1 <1>   0.5690 
 11 O       -0.5030     5.4820    -2.3110 O.2   1 <1>  -0.5700 
 12 C       -2.3180     6.6070    -1.1690 C.3   1 <1>   0.2910 
 13 H       -2.2050     7.6340    -0.8030 H     1 <1>   0.0000 
 14 S       -3.2720     5.6020     0.0330 S.3   1 <1>  -0.3710 
 15 C       -4.5860     6.6810     0.3730 C.2   1 <1>   0.6510 
 16 N       -4.4800     7.9630     0.2790 N.2   1 <1>  -0.6210 
 17 C       -5.6000     8.7050     0.5820 C.2   1 <1>   0.0330 
 18 C       -5.4650    10.1980     0.4580 C.3   1 <1>   0.1380 
 19 H       -5.1960    10.4680    -0.5690 H     1 <1>   0.0000 
 20 H       -4.6810    10.5630     1.1290 H     1 <1>   0.0000 
 21 H       -6.3930    10.7220     0.7100 H     1 <1>   0.0000 
 22 C       -6.7630     8.1580     0.9700 C.2   1 <1>  -0.1360 
 23 H       -7.6500     8.7270     1.2110 H     1 <1>   0.1500 
 24 C       -6.8480     6.6940     1.0770 C.2   1 <1>   0.6160 
 25 O       -7.8800     6.1360     1.4280 O.2   1 <1>  -0.5700 
 26 N       -5.7090     6.0250     0.7590 N.am  1 <1>  -0.4900 
 27 H       -5.7120     5.0190     0.8160 H     1 <1>   0.3700 
 28 C       -3.0230     6.6200    -2.5220 C.3   1 <1>   0.0000 
 29 H       -2.4380     7.1930    -3.2500 H     1 <1>   0.0000 
 30 H       -3.1450     5.6100    -2.9300 H     1 <1>   0.0000 
 31 H       -4.0120     7.0870    -2.4610 H     1 <1>   0.0000 
 32 C        2.0080     5.2440    -0.8270 C.ar  1 <1>  -0.1500 
 33 H        1.6620     5.0200    -1.8310 H     1 <1>   0.1500 
 34 C        3.3320     4.9250    -0.5090 C.ar  1 <1>  -0.1500 
 35 H        3.9700     4.4670    -1.2610 H     1 <1>   0.1500 
@<TRIPOS>BOND
  1   1   2  1   
  2   2   3  ar  
  3   2  34  ar  
  4   3   4  1   
  5   3   5  ar  
  6   5   6  1   
  7   5   7  ar  
  8   7   8  1   
  9   7  32  ar  
 10   8   9  1   
 11   8  10  am  
 12  10  11  2   
 13  10  12  1   
 14  12  13  1   
 15  12  14  1   
 16  12  28  1   
 17  14  15  1   
 18  15  16  2   
 19  15  26  1   
 20  16  17  1   
 21  17  18  1   
 22  17  22  2   
 23  18  19  1   
 24  18  20  1   
 25  18  21  1   
 26  22  23  1   
 27  22  24  1   
 28  24  25  2   
 29  24  26  am  
 30  26  27  1   
 31  28  29  1   
 32  28  30  1   
 33  28  31  1   
 34  32  33  1   
 35  32  34  ar  
 36  34  35  1   
@<TRIPOS>SUBSTRUCTURE
  1 ****  12 GROUP 4 **** **** 0

# MOE 2022.02 (io_trps.svl 2020.11)

@<TRIPOS>MOLECULE
CEP152
35 36 1 0 0 
SMALL
USER_CHARGES


@<TRIPOS>ATOM
  1 H       -8.8460    -5.4310     0.6090 H     1 <1>   0.1500 
  2 C       -7.8300    -5.0440     0.6070 C.ar  1 <1>  -0.1500 
  3 C       -6.7780    -5.8560     1.0230 C.ar  1 <1>  -0.1500 
  4 H       -6.9710    -6.8740     1.3500 H     1 <1>   0.1500 
  5 C       -5.4700    -5.3660     1.0200 C.ar  1 <1>  -0.1500 
  6 H       -4.6790    -6.0310     1.3510 H     1 <1>   0.1500 
  7 C       -5.2090    -4.0600     0.6010 C.ar  1 <1>   0.1170 
  8 N       -3.9150    -3.4880     0.5640 N.am  1 <1>  -0.5470 
  9 H       -3.9310    -2.5290     0.2250 H     1 <1>   0.3700 
 10 C       -2.7150    -4.0710     0.9170 C.2   1 <1>   0.6160 
 11 O       -2.5640    -5.2170     1.3280 O.2   1 <1>  -0.5700 
 12 C       -1.5280    -3.1660     0.7450 C.2   1 <1>   0.0790 
 13 C       -1.6780    -1.7880     1.0710 C.1   1 <1>   0.4920 
 14 N       -1.8150    -0.6610     1.3100 N.1   1 <1>  -0.5570 
 15 C       -0.3500    -3.6590     0.3030 C.2   1 <1>  -0.2760 
 16 C        0.9070    -2.8410     0.1040 C.3   1 <1>   0.1380 
 17 H        0.7930    -2.1900    -0.7700 H     1 <1>   0.0000 
 18 H        1.1640    -2.2340     0.9780 H     1 <1>   0.0000 
 19 C        1.9840    -3.8850    -0.1630 C.3   1 <1>   0.0000 
 20 H        2.8030    -3.4870    -0.7700 H     1 <1>   0.0000 
 21 H        2.4070    -4.2460     0.7820 H     1 <1>   0.0000 
 22 C        1.2360    -5.0050    -0.8650 C.3   1 <1>   0.0000 
 23 H        1.0530    -4.7400    -1.9140 H     1 <1>   0.0000 
 24 H        1.7870    -5.9500    -0.8450 H     1 <1>   0.0000 
 25 C       -0.0800    -5.0900    -0.1030 C.3   1 <1>   0.1380 
 26 H       -0.8660    -5.5130    -0.7360 H     1 <1>   0.0000 
 27 H        0.0480    -5.7130     0.7900 H     1 <1>   0.0000 
 28 C       -6.2780    -3.2360     0.1830 C.ar  1 <1>   0.0820 
 29 O       -5.9210    -1.9670    -0.2130 O.3   1 <1>  -0.3630 
 30 C       -6.9780    -1.0740    -0.5450 C.3   1 <1>   0.2800 
 31 H       -6.5320    -0.1030    -0.7840 H     1 <1>   0.0000 
 32 H       -7.5190    -1.4190    -1.4330 H     1 <1>   0.0000 
 33 H       -7.6560    -0.9290     0.3020 H     1 <1>   0.0000 
 34 C       -7.5830    -3.7360     0.1870 C.ar  1 <1>  -0.1500 
 35 H       -8.4290    -3.1380    -0.1330 H     1 <1>   0.1500 
@<TRIPOS>BOND
  1   1   2  1   
  2   2   3  ar  
  3   2  34  ar  
  4   3   4  1   
  5   3   5  ar  
  6   5   6  1   
  7   5   7  ar  
  8   7   8  1   
  9   7  28  ar  
 10   8   9  1   
 11   8  10  am  
 12  10  11  2   
 13  10  12  1   
 14  12  13  1   
 15  12  15  2   
 16  13  14  3   
 17  15  16  1   
 18  15  25  1   
 19  16  17  1   
 20  16  18  1   
 21  16  19  1   
 22  19  20  1   
 23  19  21  1   
 24  19  22  1   
 25  22  23  1   
 26  22  24  1   
 27  22  25  1   
 28  25  26  1   
 29  25  27  1   
 30  28  29  1   
 31  28  34  ar  
 32  29  30  1   
 33  30  31  1   
 34  30  32  1   
 35  30  33  1   
 36  34  35  1   
@<TRIPOS>SUBSTRUCTURE
  1 ****   8 GROUP 4 **** **** 0

# MOE 2022.02 (io_trps.svl 2020.11)

@<TRIPOS>MOLECULE
CEP153
36 37 1 0 0 
SMALL
USER_CHARGES


@<TRIPOS>ATOM
  1 H       -1.6270    -3.2380     2.6830 H     1 <1>   0.4000 
  2 N       -1.2280    -2.4580     2.1570 N.2   1 <1>  -0.8500 
  3 C       -2.0320    -2.1190     1.2060 C.2   1 <1>   0.5600 
  4 N       -3.2280    -2.7370     0.9940 N.pl3 1 <1>  -0.5500 
  5 H       -3.5000    -3.5010     1.5980 H     1 <1>   0.4000 
  6 C       -4.1030    -2.3900    -0.0140 C.2   1 <1>  -0.0380 
  7 C       -5.3910    -3.1730    -0.1330 C.3   1 <1>   0.1380 
  8 H       -5.3140    -3.8610    -0.9840 H     1 <1>   0.0000 
  9 H       -5.5250    -3.8010     0.7570 H     1 <1>   0.0000 
 10 C       -6.6420    -2.3140    -0.2800 C.3   1 <1>   0.0000 
 11 H       -6.6450    -1.7620    -1.2250 H     1 <1>   0.0000 
 12 H       -6.7260    -1.5940     0.5410 H     1 <1>   0.0000 
 13 H       -7.5350    -2.9470    -0.2670 H     1 <1>   0.0000 
 14 C       -3.7860    -1.3880    -0.8500 C.2   1 <1>  -0.1360 
 15 H       -4.4110    -1.0630    -1.6710 H     1 <1>   0.1500 
 16 C       -2.5050    -0.6580    -0.6710 C.2   1 <1>   0.6160 
 17 O       -2.2600     0.2890    -1.4170 O.2   1 <1>  -0.5700 
 18 N       -1.6800    -1.0850     0.3590 N.am  1 <1>  -0.4200 
 19 C       -0.3960    -0.4230     0.5220 C.3   1 <1>   0.3610 
 20 H       -0.1380    -0.3530     1.5840 H     1 <1>   0.0000 
 21 H       -0.4270     0.5940     0.1160 H     1 <1>   0.0000 
 22 C        0.7010    -1.1920    -0.2290 C.2   1 <1>   0.5690 
 23 O        0.4530    -1.9560    -1.1580 O.2   1 <1>  -0.5700 
 24 N        1.9720    -0.8560     0.2290 N.am  1 <1>  -0.5470 
 25 H        2.0160    -0.2220     1.0180 H     1 <1>   0.3700 
 26 C        3.2130    -1.2990    -0.2730 C.ar  1 <1>   0.1170 
 27 C        4.3680    -0.8080     0.3570 C.ar  1 <1>  -0.1500 
 28 H        4.2960    -0.1210     1.1970 H     1 <1>   0.1500 
 29 C        5.6380    -1.1880    -0.0850 C.ar  1 <1>  -0.1500 
 30 H        6.5320    -0.8080     0.3990 H     1 <1>   0.1500 
 31 C        5.7550    -2.0630    -1.1560 C.ar  1 <1>   0.1900 
 32 F        6.9710    -2.4280    -1.5820 F     1 <1>  -0.1900 
 33 C        4.6260    -2.5640    -1.7900 C.ar  1 <1>  -0.1500 
 34 H        4.7340    -3.2480    -2.6250 H     1 <1>   0.1500 
 35 C        3.3540    -2.1810    -1.3490 C.ar  1 <1>  -0.1500 
 36 H        2.4950    -2.5900    -1.8700 H     1 <1>   0.1500 
@<TRIPOS>BOND
  1   1   2  1   
  2   2   3  2   
  3   3   4  1   
  4   3  18  1   
  5   4   5  1   
  6   4   6  1   
  7   6   7  1   
  8   6  14  2   
  9   7   8  1   
 10   7   9  1   
 11   7  10  1   
 12  10  11  1   
 13  10  12  1   
 14  10  13  1   
 15  14  15  1   
 16  14  16  1   
 17  16  17  2   
 18  16  18  am  
 19  18  19  1   
 20  19  20  1   
 21  19  21  1   
 22  19  22  1   
 23  22  23  2   
 24  22  24  am  
 25  24  25  1   
 26  24  26  1   
 27  26  27  ar  
 28  26  35  ar  
 29  27  28  1   
 30  27  29  ar  
 31  29  30  1   
 32  29  31  ar  
 33  31  32  1   
 34  31  33  ar  
 35  33  34  1   
 36  33  35  ar  
 37  35  36  1   
@<TRIPOS>SUBSTRUCTURE
  1 ****  22 GROUP 4 **** **** 0

# MOE 2022.02 (io_trps.svl 2020.11)

@<TRIPOS>MOLECULE
CEP154
32 34 1 0 0 
SMALL
USER_CHARGES


@<TRIPOS>ATOM
  1 H       -7.6780    -6.8270    -0.4000 H     1 <1>   0.1500 
  2 C       -6.7140    -6.3360    -0.3830 C.2   1 <1>   0.3660 
  3 N       -6.5340    -5.0570     0.0710 N.2   1 <1>  -0.5650 
  4 C       -5.2440    -4.8480    -0.0820 C.2   1 <1>   0.3120 
  5 N       -4.7060    -5.9870    -0.6160 N.pl3 1 <1>   0.3140 
  6 N       -5.6080    -6.9560    -0.8080 N.2   1 <1>  -0.7070 
  7 C       -3.3070    -6.1230    -0.9260 C.3   1 <1>   0.2560 
  8 H       -3.1870    -5.8210    -1.9730 H     1 <1>   0.0000 
  9 H       -3.0280    -7.1790    -0.8350 H     1 <1>   0.0000 
 10 C       -2.5000    -5.2580     0.0350 C.3   1 <1>   0.1220 
 11 H       -2.4820    -5.7290     1.0270 H     1 <1>   0.0000 
 12 C       -1.0990    -5.1520    -0.5250 C.2   1 <1>   0.5690 
 13 O       -0.8970    -4.5350    -1.5660 O.2   1 <1>  -0.5700 
 14 N       -0.1530    -5.8110     0.2400 N.am  1 <1>  -0.5470 
 15 H       -0.4630    -6.2870     1.0780 H     1 <1>   0.3700 
 16 C        1.2350    -5.9040    -0.0110 C.ar  1 <1>   0.1170 
 17 C        1.8760    -5.3230    -1.1070 C.ar  1 <1>  -0.1500 
 18 H        1.3350    -4.7500    -1.8530 H     1 <1>   0.1500 
 19 C        3.2570    -5.4650    -1.2780 C.ar  1 <1>  -0.1500 
 20 H        3.7430    -5.0070    -2.1360 H     1 <1>   0.1500 
 21 C        4.0090    -6.1880    -0.3560 C.ar  1 <1>  -0.1500 
 22 H        5.0820    -6.2950    -0.4930 H     1 <1>   0.1500 
 23 C        3.3810    -6.7710     0.7400 C.ar  1 <1>  -0.1500 
 24 H        3.9650    -7.3360     1.4620 H     1 <1>   0.1500 
 25 C        2.0020    -6.6300     0.9110 C.ar  1 <1>  -0.1500 
 26 H        1.5420    -7.0980     1.7780 H     1 <1>   0.1500 
 27 C       -3.1960    -3.9110     0.2360 C.2   1 <1>   0.3280 
 28 C       -2.3580    -2.7070     0.5940 C.3   1 <1>   0.0610 
 29 H       -1.7930    -2.3760    -0.2800 H     1 <1>   0.0000 
 30 H       -1.6660    -2.9680     1.4000 H     1 <1>   0.0000 
 31 H       -2.9950    -1.8840     0.9300 H     1 <1>   0.0000 
 32 N       -4.4880    -3.7570     0.1980 N.2   1 <1>  -0.5760 
@<TRIPOS>BOND
  1   1   2  1   
  2   2   3  1   
  3   2   6  2   
  4   3   4  2   
  5   4   5  1   
  6   4  32  1   
  7   5   6  1   
  8   5   7  1   
  9   7   8  1   
 10   7   9  1   
 11   7  10  1   
 12  10  11  1   
 13  10  12  1   
 14  10  27  1   
 15  12  13  2   
 16  12  14  am  
 17  14  15  1   
 18  14  16  1   
 19  16  17  ar  
 20  16  25  ar  
 21  17  18  1   
 22  17  19  ar  
 23  19  20  1   
 24  19  21  ar  
 25  21  22  1   
 26  21  23  ar  
 27  23  24  1   
 28  23  25  ar  
 29  25  26  1   
 30  27  28  1   
 31  27  32  2   
 32  28  29  1   
 33  28  30  1   
 34  28  31  1   
@<TRIPOS>SUBSTRUCTURE
  1 ****  12 GROUP 4 **** **** 0

# MOE 2022.02 (io_trps.svl 2020.11)

@<TRIPOS>MOLECULE
CEP155
37 39 1 0 0 
SMALL
USER_CHARGES


@<TRIPOS>ATOM
  1 H        3.4380    -0.2590    -0.4250 H     1 <1>   0.1500 
  2 C        2.3560    -0.3320    -0.3580 C.ar  1 <1>  -0.1500 
  3 C        1.6230     0.8310    -0.6040 C.ar  1 <1>  -0.1500 
  4 H        2.1520     1.7450    -0.8630 H     1 <1>   0.1500 
  5 C        0.2330     0.8210    -0.5050 C.ar  1 <1>  -0.1440 
  6 C       -0.5620     2.0730    -0.7300 C.3   1 <1>   0.1440 
  7 H       -0.0080     2.7880    -1.3470 H     1 <1>   0.0000 
  8 H       -0.7930     2.5460     0.2300 H     1 <1>   0.0000 
  9 H       -1.4980     1.8490    -1.2530 H     1 <1>   0.0000 
 10 C       -0.4150    -0.3700    -0.1520 C.ar  1 <1>  -0.1500 
 11 H       -1.5000    -0.3540    -0.0960 H     1 <1>   0.1500 
 12 C        0.3030    -1.5520     0.0820 C.ar  1 <1>   0.1170 
 13 N       -0.3600    -2.7820     0.3300 N.am  1 <1>  -0.5470 
 14 H        0.1980    -3.6190     0.2900 H     1 <1>   0.3700 
 15 C       -1.6950    -2.9810     0.6030 C.2   1 <1>   0.6300 
 16 O       -2.5690    -2.1440     0.7620 O.2   1 <1>  -0.5700 
 17 C       -2.0420    -4.4220     0.7620 C.3   1 <1>  -0.1000 
 18 H       -2.0370    -4.7510     1.7970 H     1 <1>   0.1000 
 19 C       -1.6970    -5.4410    -0.3010 C.3   1 <1>  -0.2000 
 20 H       -1.4160    -6.4380     0.0200 H     1 <1>   0.1000 
 21 H       -1.2120    -5.1150    -1.2150 H     1 <1>   0.1000 
 22 C       -3.1240    -5.0240    -0.1050 C.3   1 <1>  -0.2000 
 23 H       -3.5840    -4.3940    -0.8590 H     1 <1>   0.1000 
 24 H       -3.8070    -5.7270     0.3570 H     1 <1>   0.1000 
 25 C        1.7180    -1.5270    -0.0010 C.ar  1 <1>   0.1170 
 26 N        2.4600    -2.6870     0.3410 N.am  1 <1>  -0.5470 
 27 H        1.9570    -3.4360     0.7860 H     1 <1>   0.3700 
 28 C        3.8060    -2.9120     0.1530 C.2   1 <1>   0.6300 
 29 O        4.6340    -2.1780    -0.3610 O.2   1 <1>  -0.5700 
 30 C        4.2420    -4.2380     0.6780 C.3   1 <1>  -0.1000 
 31 H        4.6090    -4.1940     1.6990 H     1 <1>   0.1000 
 32 C        3.5800    -5.5210     0.2230 C.3   1 <1>  -0.2000 
 33 H        3.4640    -6.3170     0.9500 H     1 <1>   0.1000 
 34 H        2.7980    -5.4820    -0.5260 H     1 <1>   0.1000 
 35 C        4.9710    -5.1970    -0.2350 C.3   1 <1>  -0.2000 
 36 H        5.7960    -5.7620     0.1840 H     1 <1>   0.1000 
 37 H        5.1180    -4.9040    -1.2690 H     1 <1>   0.1000 
@<TRIPOS>BOND
  1   1   2  1   
  2   2   3  ar  
  3   2  25  ar  
  4   3   4  1   
  5   3   5  ar  
  6   5   6  1   
  7   5  10  ar  
  8   6   7  1   
  9   6   8  1   
 10   6   9  1   
 11  10  11  1   
 12  10  12  ar  
 13  12  13  1   
 14  12  25  ar  
 15  13  14  1   
 16  13  15  am  
 17  15  16  2   
 18  15  17  1   
 19  17  18  1   
 20  17  19  1   
 21  17  22  1   
 22  19  20  1   
 23  19  21  1   
 24  19  22  1   
 25  22  23  1   
 26  22  24  1   
 27  25  26  1   
 28  26  27  1   
 29  26  28  am  
 30  28  29  2   
 31  28  30  1   
 32  30  31  1   
 33  30  32  1   
 34  30  35  1   
 35  32  33  1   
 36  32  34  1   
 37  32  35  1   
 38  35  36  1   
 39  35  37  1   
@<TRIPOS>SUBSTRUCTURE
  1 ****  12 GROUP 4 **** **** 0

# MOE 2022.02 (io_trps.svl 2020.11)

@<TRIPOS>MOLECULE
CEP156
35 35 1 0 0 
SMALL
USER_CHARGES


@<TRIPOS>ATOM
  1 H        0.3820    -7.0870    -0.2260 H     1 <1>   0.5000 
  2 O        1.3070    -6.7630    -0.1990 O.3   1 <1>  -0.6500 
  3 C        1.1740    -5.4240    -0.2410 C.2   1 <1>   0.6340 
  4 O        0.0760    -4.9050    -0.3030 O.2   1 <1>  -0.5700 
  5 C        2.4780    -4.7180    -0.2030 C.ar  1 <1>   0.0860 
  6 C        3.6890    -5.4100    -0.2170 C.ar  1 <1>  -0.1500 
  7 H        3.7110    -6.4970    -0.2440 H     1 <1>   0.1500 
  8 C        4.8970    -4.7100    -0.1840 C.ar  1 <1>  -0.1500 
  9 H        5.8110    -5.2960    -0.1590 H     1 <1>   0.1500 
 10 C        4.9170    -3.3100    -0.1380 C.ar  1 <1>   0.1170 
 11 N        6.1310    -2.5900     0.0130 N.am  1 <1>  -0.5470 
 12 H        6.0510    -1.6250     0.2930 H     1 <1>   0.3700 
 13 C        7.4210    -3.0710    -0.1620 C.2   1 <1>   0.5690 
 14 O        7.7340    -4.1860    -0.5610 O.2   1 <1>  -0.5700 
 15 C        8.4570    -2.0120     0.1820 C.3   1 <1>   0.0610 
 16 H        8.2950    -1.1440    -0.4670 H     1 <1>   0.0000 
 17 H        8.2980    -1.6950     1.2190 H     1 <1>   0.0000 
 18 C        9.8820    -2.5100     0.0170 C.3   1 <1>   0.0000 
 19 H       10.0750    -3.3710     0.6640 H     1 <1>   0.0000 
 20 H       10.0740    -2.8170    -1.0170 H     1 <1>   0.0000 
 21 H       10.5940    -1.7200     0.2760 H     1 <1>   0.0000 
 22 C        3.6880    -2.6010    -0.1570 C.ar  1 <1>   0.1170 
 23 N        3.7110    -1.1840    -0.2470 N.am  1 <1>  -0.5470 
 24 H        4.5900    -0.7630    -0.5050 H     1 <1>   0.3700 
 25 C        2.6530    -0.3110    -0.0360 C.2   1 <1>   0.5690 
 26 O        1.5370    -0.6100     0.3670 O.2   1 <1>  -0.5700 
 27 C        3.0530     1.1260    -0.3370 C.3   1 <1>   0.0610 
 28 H        3.8720     1.4050     0.3360 H     1 <1>   0.0000 
 29 H        3.4270     1.1740    -1.3670 H     1 <1>   0.0000 
 30 C        1.9010     2.1010    -0.1710 C.3   1 <1>   0.0000 
 31 H        2.2290     3.1190    -0.4040 H     1 <1>   0.0000 
 32 H        1.5210     2.0900     0.8560 H     1 <1>   0.0000 
 33 H        1.0720     1.8470    -0.8390 H     1 <1>   0.0000 
 34 C        2.4820    -3.3170    -0.1740 C.ar  1 <1>  -0.1500 
 35 H        1.5230    -2.8060    -0.2040 H     1 <1>   0.1500 
@<TRIPOS>BOND
  1   1   2  1   
  2   2   3  1   
  3   3   4  2   
  4   3   5  1   
  5   5   6  ar  
  6   5  34  ar  
  7   6   7  1   
  8   6   8  ar  
  9   8   9  1   
 10   8  10  ar  
 11  10  11  1   
 12  10  22  ar  
 13  11  12  1   
 14  11  13  am  
 15  13  14  2   
 16  13  15  1   
 17  15  16  1   
 18  15  17  1   
 19  15  18  1   
 20  18  19  1   
 21  18  20  1   
 22  18  21  1   
 23  22  23  1   
 24  22  34  ar  
 25  23  24  1   
 26  23  25  am  
 27  25  26  2   
 28  25  27  1   
 29  27  28  1   
 30  27  29  1   
 31  27  30  1   
 32  30  31  1   
 33  30  32  1   
 34  30  33  1   
 35  34  35  1   
@<TRIPOS>SUBSTRUCTURE
  1 ****  22 GROUP 4 **** **** 0

# MOE 2022.02 (io_trps.svl 2020.11)

@<TRIPOS>MOLECULE
CEP157
29 29 1 0 0 
SMALL
USER_CHARGES


@<TRIPOS>ATOM
  1 H        8.3800     3.2430    -0.3620 H     1 <1>   0.5000 
  2 O        7.4710     3.5680    -0.1910 O.3   1 <1>  -0.6500 
  3 C        7.5490     4.8790    -0.4590 C.2   1 <1>   0.7060 
  4 O        8.5880     5.3850    -0.8450 O.2   1 <1>  -0.5700 
  5 C        6.2800     5.6010    -0.3200 C.2   1 <1>  -0.1360 
  6 H        6.2820     6.5420    -0.8670 H     1 <1>   0.1500 
  7 C        5.1980     5.2270     0.3880 C.2   1 <1>  -0.1240 
  8 C        4.0490     6.1870     0.3260 C.2   1 <1>   0.6160 
  9 O        4.2570     7.3940     0.3610 O.2   1 <1>  -0.5700 
 10 N        2.8280     5.5550     0.2140 N.am  1 <1>  -0.5470 
 11 H        2.8380     4.5460     0.1380 H     1 <1>   0.3700 
 12 C        1.5520     6.1570     0.1820 C.ar  1 <1>   0.1170 
 13 C        1.3330     7.5310     0.2890 C.ar  1 <1>  -0.1500 
 14 H        2.1520     8.2330     0.4050 H     1 <1>   0.1500 
 15 C        0.0350     8.0500     0.2480 C.ar  1 <1>  -0.1500 
 16 H       -0.1170     9.1240     0.3290 H     1 <1>   0.1500 
 17 C       -1.0580     7.1990     0.1030 C.ar  1 <1>  -0.1500 
 18 H       -2.0620     7.6200     0.0690 H     1 <1>   0.1500 
 19 C       -0.8650     5.8160     0.0040 C.ar  1 <1>  -0.1440 
 20 C       -2.0380     4.8860    -0.1750 C.3   1 <1>   1.1640 
 21 F       -3.2010     5.3790     0.3350 F     1 <1>  -0.3400 
 22 F       -1.8520     3.6770     0.4270 F     1 <1>  -0.3400 
 23 F       -2.2870     4.6150    -1.4850 F     1 <1>  -0.3400 
 24 C        0.4460     5.3070     0.0390 C.ar  1 <1>  -0.1500 
 25 H        0.5910     4.2310    -0.0490 H     1 <1>   0.1500 
 26 C        5.0690     4.0340     1.2840 C.3   1 <1>   0.1380 
 27 H        4.3510     4.2230     2.0890 H     1 <1>   0.0000 
 28 H        4.7270     3.1620     0.7180 H     1 <1>   0.0000 
 29 H        6.0140     3.7910     1.7790 H     1 <1>   0.0000 
@<TRIPOS>BOND
  1   1   2  1   
  2   2   3  1   
  3   3   4  2   
  4   3   5  1   
  5   5   6  1   
  6   5   7  2   
  7   7   8  1   
  8   7  26  1   
  9   8   9  2   
 10   8  10  am  
 11  10  11  1   
 12  10  12  1   
 13  12  13  ar  
 14  12  24  ar  
 15  13  14  1   
 16  13  15  ar  
 17  15  16  1   
 18  15  17  ar  
 19  17  18  1   
 20  17  19  ar  
 21  19  20  1   
 22  19  24  ar  
 23  20  21  1   
 24  20  22  1   
 25  20  23  1   
 26  24  25  1   
 27  26  27  1   
 28  26  28  1   
 29  26  29  1   
@<TRIPOS>SUBSTRUCTURE
  1 ****  10 GROUP 4 **** **** 0

# MOE 2022.02 (io_trps.svl 2020.11)

@<TRIPOS>MOLECULE
CEP158
36 38 1 0 0 
SMALL
USER_CHARGES


@<TRIPOS>ATOM
  1 H        3.5070    -1.0670     2.3890 H     1 <1>   0.4000 
  2 N        2.9890    -1.4460     1.5840 N.2   1 <1>  -0.8500 
  3 C        3.8610    -2.0070     0.8140 C.2   1 <1>   0.5860 
  4 O        5.1740    -1.9590     1.2370 O.3   1 <1>  -0.2320 
  5 C        6.1950    -2.5390     0.4660 C.ar  1 <1>   0.0820 
  6 C        7.4970    -2.4530     0.9530 C.ar  1 <1>  -0.1500 
  7 H        7.7010    -1.9550     1.8960 H     1 <1>   0.1500 
  8 C        8.5350    -3.0170     0.2140 C.ar  1 <1>  -0.1500 
  9 H        9.5570    -2.9600     0.5800 H     1 <1>   0.1500 
 10 C        8.2620    -3.6560    -0.9980 C.ar  1 <1>  -0.1500 
 11 H        9.0750    -4.0950    -1.5730 H     1 <1>   0.1500 
 12 C        6.9500    -3.7350    -1.4740 C.ar  1 <1>  -0.1500 
 13 H        6.7570    -4.2370    -2.4200 H     1 <1>   0.1500 
 14 C        5.9050    -3.1720    -0.7380 C.ar  1 <1>   0.0280 
 15 C        4.5230    -3.2270    -1.1880 C.2   1 <1>  -0.1780 
 16 H        4.3240    -3.7290    -2.1310 H     1 <1>   0.1500 
 17 C        3.5350    -2.6780    -0.4600 C.2   1 <1>   0.0290 
 18 C        2.1410    -2.7930    -1.0170 C.2   1 <1>   0.6160 
 19 O        1.9550    -3.3690    -2.0880 O.2   1 <1>  -0.5700 
 20 N        1.1620    -2.2190    -0.2410 N.am  1 <1>  -0.5470 
 21 H        1.4560    -1.7650     0.6330 H     1 <1>   0.3700 
 22 C       -0.2320    -2.1600    -0.4750 C.ar  1 <1>   0.1170 
 23 C       -0.8510    -2.7180    -1.5970 C.ar  1 <1>  -0.1500 
 24 H       -0.2820    -3.2360    -2.3620 H     1 <1>   0.1500 
 25 C       -2.2340    -2.6240    -1.7630 C.ar  1 <1>  -0.1500 
 26 H       -2.7020    -3.0630    -2.6400 H     1 <1>   0.1500 
 27 C       -3.0100    -1.9710    -0.8100 C.ar  1 <1>  -0.1500 
 28 H       -4.0870    -1.9000    -0.9430 H     1 <1>   0.1500 
 29 C       -2.4080    -1.4080     0.3160 C.ar  1 <1>  -0.1500 
 30 H       -3.0460    -0.9080     1.0360 H     1 <1>   0.1500 
 31 C       -1.0220    -1.4970     0.4910 C.ar  1 <1>   0.0820 
 32 O       -0.3350    -0.9770     1.5630 O.3   1 <1>  -0.3630 
 33 C       -1.0890    -0.2930     2.5540 C.3   1 <1>   0.2800 
 34 H       -0.3920     0.0560     3.3220 H     1 <1>   0.0000 
 35 H       -1.8050    -0.9640     3.0380 H     1 <1>   0.0000 
 36 H       -1.5880     0.5860     2.1350 H     1 <1>   0.0000 
@<TRIPOS>BOND
  1   1   2  1   
  2   2   3  2   
  3   3   4  1   
  4   3  17  1   
  5   4   5  1   
  6   5   6  ar  
  7   5  14  ar  
  8   6   7  1   
  9   6   8  ar  
 10   8   9  1   
 11   8  10  ar  
 12  10  11  1   
 13  10  12  ar  
 14  12  13  1   
 15  12  14  ar  
 16  14  15  1   
 17  15  16  1   
 18  15  17  2   
 19  17  18  1   
 20  18  19  2   
 21  18  20  am  
 22  20  21  1   
 23  20  22  1   
 24  22  23  ar  
 25  22  31  ar  
 26  23  24  1   
 27  23  25  ar  
 28  25  26  1   
 29  25  27  ar  
 30  27  28  1   
 31  27  29  ar  
 32  29  30  1   
 33  29  31  ar  
 34  31  32  1   
 35  32  33  1   
 36  33  34  1   
 37  33  35  1   
 38  33  36  1   
@<TRIPOS>SUBSTRUCTURE
  1 ****  17 GROUP 4 **** **** 0

# MOE 2022.02 (io_trps.svl 2020.11)

@<TRIPOS>MOLECULE
CEP159
29 30 1 0 0 
SMALL
USER_CHARGES


@<TRIPOS>ATOM
  1 H        3.5440     0.4610     1.3520 H     1 <1>   0.1500 
  2 C        3.4350     1.3390     0.7200 C.ar  1 <1>  -0.1500 
  3 C        4.4910     1.7570    -0.0860 C.ar  1 <1>  -0.1500 
  4 H        5.4270     1.2040    -0.0820 H     1 <1>   0.1500 
  5 C        4.3320     2.8750    -0.9010 C.ar  1 <1>   0.1770 
  6 CL       5.6270     3.3820    -1.9160 Cl    1 <1>  -0.1770 
  7 C        3.1300     3.5850    -0.9100 C.ar  1 <1>  -0.1500 
  8 H        3.0170     4.4210    -1.5930 H     1 <1>   0.1500 
  9 C        2.0660     3.1860    -0.0900 C.ar  1 <1>   0.1170 
 10 N        0.8230     3.9160    -0.0860 N.am  1 <1>  -0.2860 
 11 C        0.7680     5.3130     0.0680 C.2   1 <1>  -0.0290 
 12 C        2.0030     6.1050     0.4230 C.3   1 <1>   0.1380 
 13 H        2.5990     5.5950     1.1880 H     1 <1>   0.0000 
 14 H        2.6210     6.2930    -0.4590 H     1 <1>   0.0000 
 15 H        1.7460     7.0850     0.8420 H     1 <1>   0.0000 
 16 C       -0.4130     5.9530     0.0140 C.2   1 <1>  -0.1500 
 17 H       -0.4620     7.0300     0.1670 H     1 <1>   0.1500 
 18 C       -1.6580     5.2550    -0.2100 C.2   1 <1>  -0.1380 
 19 C       -2.8790     6.1340    -0.2780 C.3   1 <1>   0.1380 
 20 H       -2.7750     6.8660    -1.0870 H     1 <1>   0.0000 
 21 H       -3.0090     6.6780     0.6640 H     1 <1>   0.0000 
 22 H       -3.8030     5.5790    -0.4620 H     1 <1>   0.0000 
 23 C       -1.6550     3.9130    -0.3200 C.2   1 <1>   0.0790 
 24 C       -2.8460     3.1590    -0.5200 C.1   1 <1>   0.4920 
 25 N       -3.8510     2.5990    -0.6790 N.1   1 <1>  -0.5570 
 26 C       -0.3630     3.1570    -0.2510 C.2   1 <1>   0.6160 
 27 O       -0.3960     1.9310    -0.3770 O.2   1 <1>  -0.5700 
 28 C        2.2300     2.0470     0.7130 C.ar  1 <1>  -0.1500 
 29 H        1.4220     1.7030     1.3570 H     1 <1>   0.1500 
@<TRIPOS>BOND
  1   1   2  1   
  2   2   3  ar  
  3   2  28  ar  
  4   3   4  1   
  5   3   5  ar  
  6   5   6  1   
  7   5   7  ar  
  8   7   8  1   
  9   7   9  ar  
 10   9  10  1   
 11   9  28  ar  
 12  10  11  1   
 13  10  26  am  
 14  11  12  1   
 15  11  16  2   
 16  12  13  1   
 17  12  14  1   
 18  12  15  1   
 19  16  17  1   
 20  16  18  1   
 21  18  19  1   
 22  18  23  2   
 23  19  20  1   
 24  19  21  1   
 25  19  22  1   
 26  23  24  1   
 27  23  26  1   
 28  24  25  3   
 29  26  27  2   
 30  28  29  1   
@<TRIPOS>SUBSTRUCTURE
  1 ****  10 GROUP 4 **** **** 0

# MOE 2022.02 (io_trps.svl 2020.11)

@<TRIPOS>MOLECULE
CEP160
35 36 1 0 0 
SMALL
USER_CHARGES


@<TRIPOS>ATOM
  1 H        0.5910     0.7760     0.8420 H     1 <1>   0.1500 
  2 C       -0.0660    -0.0190     0.4890 C.ar  1 <1>  -0.1500 
  3 C       -1.4420     0.2270     0.3990 C.ar  1 <1>  -0.1500 
  4 H       -1.7980     1.2100     0.6920 H     1 <1>   0.1500 
  5 C       -2.3100    -0.7680    -0.0490 C.ar  1 <1>   0.1170 
  6 N       -3.7040    -0.6050    -0.1600 N.am  1 <1>  -0.5470 
  7 H       -4.2270    -1.4110    -0.4780 H     1 <1>   0.3700 
  8 C       -4.4390     0.5400     0.0900 C.2   1 <1>   0.6160 
  9 O       -4.0120     1.6590     0.3400 O.2   1 <1>  -0.5700 
 10 C       -5.9180     0.2780    -0.0050 C.2   1 <1>   0.1140 
 11 C       -6.6840     1.2470    -0.5220 C.2   1 <1>  -0.1360 
 12 H       -6.3110     2.2050    -0.8600 H     1 <1>   0.1500 
 13 C       -8.1420     0.9900    -0.6650 C.2   1 <1>   0.5410 
 14 O       -8.8640     1.8620    -1.1390 O.2   1 <1>  -0.5700 
 15 C       -8.6810    -0.3550    -0.2300 C.2   1 <1>   0.0910 
 16 O      -10.0310    -0.5660    -0.3980 O.3   1 <1>  -0.3570 
 17 C      -10.5620    -1.8170     0.0150 C.3   1 <1>   0.2800 
 18 H      -11.6360    -1.8130    -0.1900 H     1 <1>   0.0000 
 19 H      -10.1140    -2.6400    -0.5520 H     1 <1>   0.0000 
 20 H      -10.4240    -1.9650     1.0910 H     1 <1>   0.0000 
 21 C       -7.7780    -1.2120     0.2860 C.2   1 <1>  -0.0500 
 22 H       -8.0420    -2.1990     0.6470 H     1 <1>   0.1500 
 23 N       -6.4450    -0.9230     0.4260 N.pl3 1 <1>  -0.6000 
 24 H       -5.8380    -1.5880     0.8960 H     1 <1>   0.4000 
 25 C       -1.7810    -2.0150    -0.4040 C.ar  1 <1>  -0.1500 
 26 H       -2.4280    -2.8130    -0.7600 H     1 <1>   0.1500 
 27 C       -0.4050    -2.2650    -0.3170 C.ar  1 <1>  -0.1500 
 28 H       -0.0420    -3.2470    -0.6040 H     1 <1>   0.1500 
 29 C        0.4620    -1.2640     0.1310 C.ar  1 <1>   0.0860 
 30 C        1.9360    -1.4760     0.2460 C.2   1 <1>   0.4230 
 31 O        2.6540    -0.5760     0.6750 O.2   1 <1>  -0.5700 
 32 C        2.5170    -2.8030    -0.1680 C.3   1 <1>   0.0610 
 33 H        2.2950    -3.0040    -1.2190 H     1 <1>   0.0000 
 34 H        2.1300    -3.6010     0.4720 H     1 <1>   0.0000 
 35 H        3.6050    -2.7710    -0.0530 H     1 <1>   0.0000 
@<TRIPOS>BOND
  1   1   2  1   
  2   2   3  ar  
  3   2  29  ar  
  4   3   4  1   
  5   3   5  ar  
  6   5   6  1   
  7   5  25  ar  
  8   6   7  1   
  9   6   8  am  
 10   8   9  2   
 11   8  10  1   
 12  10  11  2   
 13  10  23  1   
 14  11  12  1   
 15  11  13  1   
 16  13  14  2   
 17  13  15  1   
 18  15  16  1   
 19  15  21  2   
 20  16  17  1   
 21  17  18  1   
 22  17  19  1   
 23  17  20  1   
 24  21  22  1   
 25  21  23  1   
 26  23  24  1   
 27  25  26  1   
 28  25  27  ar  
 29  27  28  1   
 30  27  29  ar  
 31  29  30  1   
 32  30  31  2   
 33  30  32  1   
 34  32  33  1   
 35  32  34  1   
 36  32  35  1   
@<TRIPOS>SUBSTRUCTURE
  1 ****   6 GROUP 4 **** **** 0

# MOE 2022.02 (io_trps.svl 2020.11)

@<TRIPOS>MOLECULE
CEP161
38 40 1 0 0 
SMALL
USER_CHARGES


@<TRIPOS>ATOM
  1 H        3.4270     4.4150     0.7910 H     1 <1>   0.1500 
  2 C        2.3620     4.6110     0.6960 C.ar  1 <1>  -0.1500 
  3 C        1.9000     5.5080    -0.2640 C.ar  1 <1>  -0.1500 
  4 H        2.6030     6.0150    -0.9200 H     1 <1>   0.1500 
  5 C        0.5300     5.7640    -0.3900 C.ar  1 <1>  -0.1500 
  6 H        0.2170     6.4740    -1.1490 H     1 <1>   0.1500 
  7 C       -0.3900     5.1270     0.4440 C.ar  1 <1>   0.1170 
  8 N       -1.7850     5.3320     0.3860 N.am  1 <1>  -0.5470 
  9 H       -2.3290     4.8250     1.0730 H     1 <1>   0.3700 
 10 C       -2.4770     6.1450    -0.4940 C.2   1 <1>   0.6160 
 11 O       -2.0130     6.8280    -1.3980 O.2   1 <1>  -0.5700 
 12 C       -3.9440     6.1090    -0.2740 C.2   1 <1>   0.0290 
 13 C       -4.6090     4.9490    -0.4270 C.2   1 <1>  -0.1500 
 14 H       -4.0900     4.0320    -0.6990 H     1 <1>   0.1500 
 15 C       -6.0530     4.8840    -0.2910 C.2   1 <1>   0.0140 
 16 C       -6.7540     6.0050    -0.0430 C.2   1 <1>  -0.0290 
 17 N       -6.0810     7.1990     0.1100 N.am  1 <1>  -0.5390 
 18 H       -6.5900     8.0560     0.3030 H     1 <1>   0.3700 
 19 C       -4.7120     7.3490     0.0270 C.2   1 <1>   0.6160 
 20 O       -4.1840     8.4350     0.2310 O.2   1 <1>  -0.5700 
 21 C       -8.2520     6.0530     0.1060 C.3   1 <1>   0.1380 
 22 H       -8.5240     6.7480     0.9110 H     1 <1>   0.0000 
 23 H       -8.6820     6.4520    -0.8210 H     1 <1>   0.0000 
 24 C       -8.8480     4.6770     0.4270 C.3   1 <1>   0.0000 
 25 H       -8.5570     4.4090     1.4530 H     1 <1>   0.0000 
 26 C      -10.3730     4.7190     0.3660 C.3   1 <1>   0.0000 
 27 H      -10.7690     5.4630     1.0650 H     1 <1>   0.0000 
 28 H      -10.7240     4.9790    -0.6390 H     1 <1>   0.0000 
 29 H      -10.7990     3.7470     0.6330 H     1 <1>   0.0000 
 30 C       -8.2910     3.6170    -0.5220 C.3   1 <1>   0.0610 
 31 H       -8.5970     3.8030    -1.5580 H     1 <1>   0.0000 
 32 H       -8.6610     2.6290    -0.2270 H     1 <1>   0.0000 
 33 C       -6.7780     3.5880    -0.4750 C.2   1 <1>   0.4950 
 34 O       -6.1520     2.5410    -0.6370 O.2   1 <1>  -0.5700 
 35 C        0.0860     4.2280     1.4090 C.ar  1 <1>  -0.1500 
 36 H       -0.6000     3.7130     2.0770 H     1 <1>   0.1500 
 37 C        1.4540     3.9700     1.5340 C.ar  1 <1>  -0.1500 
 38 H        1.8090     3.2700     2.2860 H     1 <1>   0.1500 
@<TRIPOS>BOND
  1   1   2  1   
  2   2   3  ar  
  3   2  37  ar  
  4   3   4  1   
  5   3   5  ar  
  6   5   6  1   
  7   5   7  ar  
  8   7   8  1   
  9   7  35  ar  
 10   8   9  1   
 11   8  10  am  
 12  10  11  2   
 13  10  12  1   
 14  12  13  2   
 15  12  19  1   
 16  13  14  1   
 17  13  15  1   
 18  15  16  2   
 19  15  33  1   
 20  16  17  1   
 21  16  21  1   
 22  17  18  1   
 23  17  19  am  
 24  19  20  2   
 25  21  22  1   
 26  21  23  1   
 27  21  24  1   
 28  24  25  1   
 29  24  26  1   
 30  24  30  1   
 31  26  27  1   
 32  26  28  1   
 33  26  29  1   
 34  30  31  1   
 35  30  32  1   
 36  30  33  1   
 37  33  34  2   
 38  35  36  1   
 39  35  37  ar  
 40  37  38  1   
@<TRIPOS>SUBSTRUCTURE
  1 ****  12 GROUP 4 **** **** 0

# MOE 2022.02 (io_trps.svl 2020.11)

@<TRIPOS>MOLECULE
CEP162
34 35 1 0 0 
SMALL
USER_CHARGES


@<TRIPOS>ATOM
  1 H       10.0050     9.7950    -1.3930 H     1 <1>   0.5000 
  2 O        9.1210     9.4140    -1.2060 O.3   1 <1>  -0.6500 
  3 C        9.3230     8.6790    -0.1010 C.2   1 <1>   0.7060 
  4 O       10.4180     8.6060     0.4250 O.2   1 <1>  -0.5700 
  5 C        8.1190     7.9990     0.3830 C.2   1 <1>  -0.1360 
  6 H        8.2590     7.4080     1.2830 H     1 <1>   0.1500 
  7 C        6.9300     8.0900    -0.2300 C.2   1 <1>  -0.1360 
  8 H        6.7950     8.6790    -1.1280 H     1 <1>   0.1500 
  9 C        5.7610     7.3630     0.3340 C.2   1 <1>   0.6160 
 10 O        5.8720     6.6990     1.3560 O.2   1 <1>  -0.5700 
 11 N        4.6240     7.5500    -0.4250 N.am  1 <1>  -0.5470 
 12 H        4.7010     8.1350    -1.2470 H     1 <1>   0.3700 
 13 C        3.3400     7.0110    -0.1890 C.ar  1 <1>   0.1170 
 14 C        2.3320     7.3400    -1.1070 C.ar  1 <1>  -0.1500 
 15 H        2.5410     7.9770    -1.9620 H     1 <1>   0.1500 
 16 C        1.0320     6.8500    -0.9470 C.ar  1 <1>  -0.1500 
 17 H        0.2690     7.1030    -1.6790 H     1 <1>   0.1500 
 18 C        0.7270     6.0380     0.1440 C.ar  1 <1>   0.0820 
 19 O       -0.5200     5.4920     0.3440 O.3   1 <1>  -0.1650 
 20 C       -1.6040     6.3310     0.2150 C.ar  1 <1>   0.0820 
 21 C       -1.6780     7.5680     0.8600 C.ar  1 <1>  -0.1500 
 22 H       -0.8560     7.9210     1.4760 H     1 <1>   0.1500 
 23 C       -2.8210     8.3560     0.7180 C.ar  1 <1>  -0.1500 
 24 H       -2.8800     9.3210     1.2130 H     1 <1>   0.1500 
 25 C       -3.8920     7.8990    -0.0520 C.ar  1 <1>  -0.1500 
 26 H       -4.7840     8.5130    -0.1590 H     1 <1>   0.1500 
 27 C       -3.8250     6.6530    -0.6750 C.ar  1 <1>  -0.1500 
 28 H       -4.6650     6.2940    -1.2650 H     1 <1>   0.1500 
 29 C       -2.6830     5.8640    -0.5350 C.ar  1 <1>  -0.1500 
 30 H       -2.6330     4.8890    -1.0120 H     1 <1>   0.1500 
 31 C        1.7260     5.6860     1.0480 C.ar  1 <1>  -0.1500 
 32 H        1.4970     5.0320     1.8860 H     1 <1>   0.1500 
 33 C        3.0270     6.1770     0.8870 C.ar  1 <1>  -0.1500 
 34 H        3.7710     5.8840     1.6200 H     1 <1>   0.1500 
@<TRIPOS>BOND
  1   1   2  1   
  2   2   3  1   
  3   3   4  2   
  4   3   5  1   
  5   5   6  1   
  6   5   7  2   
  7   7   8  1   
  8   7   9  1   
  9   9  10  2   
 10   9  11  am  
 11  11  12  1   
 12  11  13  1   
 13  13  14  ar  
 14  13  33  ar  
 15  14  15  1   
 16  14  16  ar  
 17  16  17  1   
 18  16  18  ar  
 19  18  19  1   
 20  18  31  ar  
 21  19  20  1   
 22  20  21  ar  
 23  20  29  ar  
 24  21  22  1   
 25  21  23  ar  
 26  23  24  1   
 27  23  25  ar  
 28  25  26  1   
 29  25  27  ar  
 30  27  28  1   
 31  27  29  ar  
 32  29  30  1   
 33  31  32  1   
 34  31  33  ar  
 35  33  34  1   
@<TRIPOS>SUBSTRUCTURE
  1 ****  13 GROUP 4 **** **** 0

# MOE 2022.02 (io_trps.svl 2020.11)

@<TRIPOS>MOLECULE
CEP163
31 32 1 0 0 
SMALL
USER_CHARGES


@<TRIPOS>ATOM
  1 H        3.2240     7.5670     2.4080 H     1 <1>   0.1500 
  2 C        2.6130     6.9080     1.7970 C.ar  1 <1>  -0.1500 
  3 C        2.5330     7.1090     0.4210 C.ar  1 <1>  -0.1500 
  4 H        3.0790     7.9260    -0.0420 H     1 <1>   0.1500 
  5 C        1.7480     6.2640    -0.3640 C.ar  1 <1>  -0.1500 
  6 H        1.6910     6.4370    -1.4370 H     1 <1>   0.1500 
  7 C        1.0360     5.2080     0.2220 C.ar  1 <1>  -0.1440 
  8 C        0.1730     4.3100    -0.6300 C.3   1 <1>   0.2040 
  9 H       -0.1520     3.4290    -0.0640 H     1 <1>   0.0000 
 10 H        0.7620     3.9330    -1.4760 H     1 <1>   0.0000 
 11 C       -1.0590     5.0260    -1.1690 C.2   1 <1>   0.5690 
 12 O       -1.1490     5.3160    -2.3570 O.2   1 <1>  -0.5700 
 13 N       -2.0020     5.2710    -0.1850 N.am  1 <1>  -0.5470 
 14 H       -1.7440     4.9700     0.7550 H     1 <1>   0.3700 
 15 C       -3.2740     5.8900    -0.3030 C.ar  1 <1>   0.1170 
 16 C       -3.7630     6.3260    -1.5430 C.ar  1 <1>  -0.1500 
 17 H       -3.1910     6.2040    -2.4580 H     1 <1>   0.1500 
 18 C       -5.0170     6.9390    -1.6580 C.ar  1 <1>  -0.1500 
 19 H       -5.3650     7.2650    -2.6360 H     1 <1>   0.1500 
 20 C       -5.8140     7.1320    -0.5360 C.ar  1 <1>  -0.1500 
 21 H       -6.7860     7.6100    -0.6330 H     1 <1>   0.1500 
 22 C       -5.3580     6.7130     0.7110 C.ar  1 <1>  -0.1500 
 23 H       -5.9950     6.8720     1.5790 H     1 <1>   0.1500 
 24 C       -4.0970     6.0950     0.8300 C.ar  1 <1>   0.1330 
 25 N       -3.6770     5.6810     2.1780 N.pl3 1 <1>   0.9070 
 26 O       -4.3110     6.1260     3.1450 O.2   1 <1>  -0.5200 
 27 O       -2.7100     4.9080     2.2790 O.2   1 <1>  -0.5200 
 28 C        1.1240     5.0130     1.6070 C.ar  1 <1>  -0.1500 
 29 H        0.5830     4.2030     2.0910 H     1 <1>   0.1500 
 30 C        1.9100     5.8610     2.3900 C.ar  1 <1>  -0.1500 
 31 H        1.9720     5.7050     3.4640 H     1 <1>   0.1500 
@<TRIPOS>BOND
  1   1   2  1   
  2   2   3  ar  
  3   2  30  ar  
  4   3   4  1   
  5   3   5  ar  
  6   5   6  1   
  7   5   7  ar  
  8   7   8  1   
  9   7  28  ar  
 10   8   9  1   
 11   8  10  1   
 12   8  11  1   
 13  11  12  2   
 14  11  13  am  
 15  13  14  1   
 16  13  15  1   
 17  15  16  ar  
 18  15  24  ar  
 19  16  17  1   
 20  16  18  ar  
 21  18  19  1   
 22  18  20  ar  
 23  20  21  1   
 24  20  22  ar  
 25  22  23  1   
 26  22  24  ar  
 27  24  25  1   
 28  25  26  2   
 29  25  27  2   
 30  28  29  1   
 31  28  30  ar  
 32  30  31  1   
@<TRIPOS>SUBSTRUCTURE
  1 ****  13 GROUP 4 **** **** 0

# MOE 2022.02 (io_trps.svl 2020.11)

@<TRIPOS>MOLECULE
CEP164
34 35 1 0 0 
SMALL
USER_CHARGES


@<TRIPOS>ATOM
  1 H       14.7680    -1.5770    -0.8610 H     1 <1>   0.4500 
  2 O       14.1540    -2.0530    -1.4430 O.3   1 <1>  -0.5320 
  3 C       12.8920    -1.9290    -0.9420 C.ar  1 <1>   0.0820 
  4 C       11.8530    -2.5310    -1.6410 C.ar  1 <1>  -0.1500 
  5 H       12.0590    -3.0770    -2.5570 H     1 <1>   0.1500 
  6 C       10.5420    -2.4310    -1.1650 C.ar  1 <1>  -0.1500 
  7 H        9.7560    -2.9110    -1.7400 H     1 <1>   0.1500 
  8 C       10.2710    -1.7310     0.0120 C.ar  1 <1>   0.1170 
  9 N        8.9830    -1.5890     0.5570 N.am  1 <1>  -0.5470 
 10 H        8.8930    -1.0570     1.4200 H     1 <1>   0.3700 
 11 C        7.7960    -2.0930     0.0700 C.2   1 <1>   0.6300 
 12 O        7.5920    -2.7850    -0.9150 O.2   1 <1>  -0.5700 
 13 C        6.6130    -1.7250     0.9650 C.2   1 <1>   0.5090 
 14 O        6.8300    -1.3060     2.0990 O.2   1 <1>  -0.5700 
 15 C        5.2430    -1.9460     0.3930 C.3   1 <1>   0.1220 
 16 H        4.5080    -1.7220     1.1740 H     1 <1>   0.0000 
 17 H        5.1600    -3.0030     0.1220 H     1 <1>   0.0000 
 18 C        4.9650    -1.0610    -0.7930 C.2   1 <1>   0.4230 
 19 O        5.6770    -0.0910    -1.0500 O.2   1 <1>  -0.5700 
 20 C        3.7810    -1.3550    -1.6540 C.ar  1 <1>   0.0860 
 21 C        3.6400    -0.6480    -2.8560 C.ar  1 <1>  -0.1500 
 22 H        4.3830     0.0910    -3.1510 H     1 <1>   0.1500 
 23 C        2.5460    -0.8860    -3.6910 C.ar  1 <1>  -0.1500 
 24 H        2.4460    -0.3350    -4.6220 H     1 <1>   0.1500 
 25 C        1.5870    -1.8290    -3.3290 C.ar  1 <1>  -0.1500 
 26 H        0.7350    -2.0140    -3.9790 H     1 <1>   0.1500 
 27 C        1.7170    -2.5330    -2.1320 C.ar  1 <1>  -0.1500 
 28 H        0.9640    -3.2650    -1.8520 H     1 <1>   0.1500 
 29 C        2.8100    -2.2980    -1.2930 C.ar  1 <1>  -0.1500 
 30 H        2.8700    -2.8590    -0.3650 H     1 <1>   0.1500 
 31 C       11.3300    -1.1290     0.7040 C.ar  1 <1>  -0.1500 
 32 H       11.1490    -0.5760     1.6230 H     1 <1>   0.1500 
 33 C       12.6420    -1.2260     0.2300 C.ar  1 <1>  -0.1500 
 34 H       13.4450    -0.7520     0.7840 H     1 <1>   0.1500 
@<TRIPOS>BOND
  1   1   2  1   
  2   2   3  1   
  3   3   4  ar  
  4   3  33  ar  
  5   4   5  1   
  6   4   6  ar  
  7   6   7  1   
  8   6   8  ar  
  9   8   9  1   
 10   8  31  ar  
 11   9  10  1   
 12   9  11  am  
 13  11  12  2   
 14  11  13  1   
 15  13  14  2   
 16  13  15  1   
 17  15  16  1   
 18  15  17  1   
 19  15  18  1   
 20  18  19  2   
 21  18  20  1   
 22  20  21  ar  
 23  20  29  ar  
 24  21  22  1   
 25  21  23  ar  
 26  23  24  1   
 27  23  25  ar  
 28  25  26  1   
 29  25  27  ar  
 30  27  28  1   
 31  27  29  ar  
 32  29  30  1   
 33  31  32  1   
 34  31  33  ar  
 35  33  34  1   
@<TRIPOS>SUBSTRUCTURE
  1 ****  11 GROUP 4 **** **** 0

# MOE 2022.02 (io_trps.svl 2020.11)

@<TRIPOS>MOLECULE
CEP165
37 38 1 0 0 
SMALL
USER_CHARGES


@<TRIPOS>ATOM
  1 H       -0.4770     0.7240    -0.8830 H     1 <1>   0.1500 
  2 C       -0.0440    -0.1730    -0.4410 C.2   1 <1>  -0.1780 
  3 C       -0.8310    -1.1410     0.0670 C.2   1 <1>  -0.1240 
  4 C       -2.3100    -0.8800    -0.0080 C.2   1 <1>   0.6160 
  5 O       -2.7390     0.2650     0.0790 O.2   1 <1>  -0.5700 
  6 N       -3.0580    -2.0270    -0.1810 N.am  1 <1>  -0.5470 
  7 H       -2.5540    -2.8950    -0.2930 H     1 <1>   0.3700 
  8 C       -4.4650    -2.1330    -0.2310 C.ar  1 <1>   0.1170 
  9 C       -5.0010    -3.4110    -0.4310 C.ar  1 <1>  -0.1500 
 10 H       -4.3560    -4.2780    -0.5480 H     1 <1>   0.1500 
 11 C       -6.3860    -3.6030    -0.4900 C.ar  1 <1>  -0.1500 
 12 H       -6.7830    -4.6040    -0.6490 H     1 <1>   0.1500 
 13 C       -7.2590    -2.5190    -0.3410 C.ar  1 <1>   0.0860 
 14 C       -8.7220    -2.7830    -0.4120 C.2   1 <1>   0.5440 
 15 O       -9.1620    -3.8150    -0.9050 O.2   1 <1>  -0.5700 
 16 N       -9.5710    -1.8490     0.1140 N.am  1 <1>  -0.8000 
 17 H       -9.2790    -1.0010     0.5740 H     1 <1>   0.3700 
 18 H      -10.5620    -2.0370     0.0410 H     1 <1>   0.3700 
 19 C       -6.7270    -1.2400    -0.1530 C.ar  1 <1>  -0.1500 
 20 H       -7.3640    -0.3650    -0.0710 H     1 <1>   0.1500 
 21 C       -5.3380    -1.0520    -0.0950 C.ar  1 <1>  -0.1500 
 22 H       -4.9730    -0.0400     0.0520 H     1 <1>   0.1500 
 23 C       -0.3490    -2.3750     0.7700 C.3   1 <1>   0.1380 
 24 H       -0.3680    -3.2350     0.0920 H     1 <1>   0.0000 
 25 H       -0.9820    -2.6000     1.6350 H     1 <1>   0.0000 
 26 H        0.6710    -2.2680     1.1520 H     1 <1>   0.0000 
 27 C        1.4200    -0.2000    -0.4440 C.ar  1 <1>   0.0280 
 28 C        2.1280     0.6830     0.3780 C.ar  1 <1>  -0.1500 
 29 H        1.5960     1.3820     1.0210 H     1 <1>   0.1500 
 30 C        3.5230     0.6700     0.3860 C.ar  1 <1>  -0.1500 
 31 H        4.0680     1.3570     1.0290 H     1 <1>   0.1500 
 32 C        4.2180    -0.2200    -0.4320 C.ar  1 <1>  -0.1500 
 33 H        5.3050    -0.2280    -0.4270 H     1 <1>   0.1500 
 34 C        3.5180    -1.0980    -1.2600 C.ar  1 <1>  -0.1500 
 35 H        4.0610    -1.7870    -1.9010 H     1 <1>   0.1500 
 36 C        2.1220    -1.0870    -1.2680 C.ar  1 <1>  -0.1500 
 37 H        1.5880    -1.7700    -1.9240 H     1 <1>   0.1500 
@<TRIPOS>BOND
  1   1   2  1   
  2   2   3  2   
  3   2  27  1   
  4   3   4  1   
  5   3  23  1   
  6   4   5  2   
  7   4   6  am  
  8   6   7  1   
  9   6   8  1   
 10   8   9  ar  
 11   8  21  ar  
 12   9  10  1   
 13   9  11  ar  
 14  11  12  1   
 15  11  13  ar  
 16  13  14  1   
 17  13  19  ar  
 18  14  15  2   
 19  14  16  am  
 20  16  17  1   
 21  16  18  1   
 22  19  20  1   
 23  19  21  ar  
 24  21  22  1   
 25  23  24  1   
 26  23  25  1   
 27  23  26  1   
 28  27  28  ar  
 29  27  36  ar  
 30  28  29  1   
 31  28  30  ar  
 32  30  31  1   
 33  30  32  ar  
 34  32  33  1   
 35  32  34  ar  
 36  34  35  1   
 37  34  36  ar  
 38  36  37  1   
@<TRIPOS>SUBSTRUCTURE
  1 ****   4 GROUP 4 **** **** 0

# MOE 2022.02 (io_trps.svl 2020.11)

@<TRIPOS>MOLECULE
CEP166
38 39 1 0 0 
SMALL
USER_CHARGES


@<TRIPOS>ATOM
  1 H       -2.1100    -1.3460    -1.4560 H     1 <1>   0.1500 
  2 C       -2.5990    -0.7500    -0.6870 C.2   1 <1>  -0.1780 
  3 C       -1.8960     0.1730    -0.0020 C.2   1 <1>   0.0290 
  4 C       -0.4550     0.3760    -0.3160 C.2   1 <1>   0.6160 
  5 O       -0.0540     1.5060    -0.5650 O.2   1 <1>  -0.5700 
  6 N        0.2830    -0.7900    -0.2510 N.am  1 <1>  -0.5470 
  7 H       -0.2110    -1.6150     0.0620 H     1 <1>   0.3700 
  8 C        1.6540    -0.9700    -0.5540 C.ar  1 <1>   0.1170 
  9 C        2.4600     0.0740    -1.0250 C.ar  1 <1>  -0.1500 
 10 H        2.0690     1.0750    -1.1780 H     1 <1>   0.1500 
 11 C        3.8090    -0.1360    -1.3210 C.ar  1 <1>  -0.1500 
 12 H        4.4160     0.6890    -1.6840 H     1 <1>   0.1500 
 13 C        4.3730    -1.3940    -1.1510 C.ar  1 <1>  -0.1500 
 14 H        5.4230    -1.5570    -1.3810 H     1 <1>   0.1500 
 15 C        3.5870    -2.4450    -0.6850 C.ar  1 <1>  -0.1500 
 16 H        4.0460    -3.4230    -0.5580 H     1 <1>   0.1500 
 17 C        2.2270    -2.2500    -0.3820 C.ar  1 <1>  -0.1440 
 18 C        1.4370    -3.4290     0.1210 C.3   1 <1>   0.1440 
 19 H        1.0400    -3.2220     1.1200 H     1 <1>   0.0000 
 20 H        0.6140    -3.6550    -0.5640 H     1 <1>   0.0000 
 21 H        2.0570    -4.3290     0.1960 H     1 <1>   0.0000 
 22 C       -2.5440     1.1010     0.9570 C.2   1 <1>   0.4950 
 23 O       -2.7830     0.7330     2.1060 O.2   1 <1>  -0.5700 
 24 C       -2.8450     2.4960     0.4830 C.3   1 <1>   0.0610 
 25 H       -2.1320     3.1930     0.9320 H     1 <1>   0.0000 
 26 H       -2.7770     2.5640    -0.6070 H     1 <1>   0.0000 
 27 H       -3.8650     2.7620     0.7760 H     1 <1>   0.0000 
 28 C       -4.0390    -1.0060    -0.5690 C.ar  1 <1>   0.0280 
 29 C       -4.6210    -1.4120     0.6370 C.ar  1 <1>  -0.1500 
 30 H       -4.0190    -1.5270     1.5360 H     1 <1>   0.1500 
 31 C       -5.9920    -1.6690     0.7080 C.ar  1 <1>  -0.1500 
 32 H       -6.4370    -1.9740     1.6520 H     1 <1>   0.1500 
 33 C       -6.7880    -1.5360    -0.4280 C.ar  1 <1>  -0.1500 
 34 H       -7.8550    -1.7370    -0.3710 H     1 <1>   0.1500 
 35 C       -6.2150    -1.1460    -1.6370 C.ar  1 <1>  -0.1500 
 36 H       -6.8350    -1.0450    -2.5240 H     1 <1>   0.1500 
 37 C       -4.8440    -0.8860    -1.7090 C.ar  1 <1>  -0.1500 
 38 H       -4.4160    -0.5830    -2.6620 H     1 <1>   0.1500 
@<TRIPOS>BOND
  1   1   2  1   
  2   2   3  2   
  3   2  28  1   
  4   3   4  1   
  5   3  22  1   
  6   4   5  2   
  7   4   6  am  
  8   6   7  1   
  9   6   8  1   
 10   8   9  ar  
 11   8  17  ar  
 12   9  10  1   
 13   9  11  ar  
 14  11  12  1   
 15  11  13  ar  
 16  13  14  1   
 17  13  15  ar  
 18  15  16  1   
 19  15  17  ar  
 20  17  18  1   
 21  18  19  1   
 22  18  20  1   
 23  18  21  1   
 24  22  23  2   
 25  22  24  1   
 26  24  25  1   
 27  24  26  1   
 28  24  27  1   
 29  28  29  ar  
 30  28  37  ar  
 31  29  30  1   
 32  29  31  ar  
 33  31  32  1   
 34  31  33  ar  
 35  33  34  1   
 36  33  35  ar  
 37  35  36  1   
 38  35  37  ar  
 39  37  38  1   
@<TRIPOS>SUBSTRUCTURE
  1 ****   3 GROUP 4 **** **** 0

# MOE 2022.02 (io_trps.svl 2020.11)

@<TRIPOS>MOLECULE
CEP167
35 36 1 0 0 
SMALL
USER_CHARGES


@<TRIPOS>ATOM
  1 H        3.8250     3.4050    -1.4770 H     1 <1>   0.1500 
  2 C        4.2880     2.8770    -0.6490 C.ar  1 <1>  -0.1500 
  3 C        5.6840     2.8620    -0.5640 C.ar  1 <1>  -0.1500 
  4 H        6.2660     3.4110    -1.3010 H     1 <1>   0.1500 
  5 C        6.3260     2.1360     0.4430 C.ar  1 <1>  -0.1440 
  6 C        7.8220     2.1440     0.5530 C.3   1 <1>   0.1440 
  7 H        8.1870     1.2100     0.9930 H     1 <1>   0.0000 
  8 H        8.2850     2.2400    -0.4350 H     1 <1>   0.0000 
  9 H        8.1460     2.9810     1.1790 H     1 <1>   0.0000 
 10 C        5.5500     1.4390     1.3740 C.ar  1 <1>  -0.1500 
 11 H        6.0250     0.8740     2.1730 H     1 <1>   0.1500 
 12 C        4.1550     1.4530     1.2870 C.ar  1 <1>  -0.1500 
 13 H        3.5810     0.9010     2.0280 H     1 <1>   0.1500 
 14 C        3.5050     2.1800     0.2810 C.ar  1 <1>   0.1170 
 15 N        2.0670     2.1960     0.1970 N.am  1 <1>  -0.2860 
 16 C        1.3340     3.3860     0.0880 C.2   1 <1>  -0.0290 
 17 C        2.0050     4.7280     0.2520 C.3   1 <1>   0.1380 
 18 H        2.7120     4.7210     1.0880 H     1 <1>   0.0000 
 19 H        2.5230     5.0280    -0.6630 H     1 <1>   0.0000 
 20 H        1.2770     5.5170     0.4750 H     1 <1>   0.0000 
 21 C        0.0000     3.3420    -0.0510 C.2   1 <1>  -0.1500 
 22 H       -0.5700     4.2680    -0.0930 H     1 <1>   0.1500 
 23 C       -0.7370     2.0980    -0.1000 C.2   1 <1>  -0.1380 
 24 C       -2.2170     2.2600    -0.3420 C.3   1 <1>   0.1380 
 25 H       -2.5800     1.5550    -1.0960 H     1 <1>   0.0000 
 26 H       -2.4660     3.2550    -0.7290 H     1 <1>   0.0000 
 27 H       -2.7760     2.1230     0.5900 H     1 <1>   0.0000 
 28 C       -0.0910     0.9240     0.0730 C.2   1 <1>   0.0290 
 29 C       -0.8600    -0.3710     0.1100 C.2   1 <1>   0.6160 
 30 O       -2.0830    -0.4420     0.1750 O.2   1 <1>  -0.5700 
 31 N       -0.1350    -1.5200     0.0830 N.am  1 <1>  -0.8000 
 32 H        0.8830    -1.5070     0.0640 H     1 <1>   0.3700 
 33 H       -0.6180    -2.4060     0.0940 H     1 <1>   0.3700 
 34 C        1.4130     0.9410     0.2220 C.2   1 <1>   0.6160 
 35 O        2.0090    -0.1380     0.3140 O.2   1 <1>  -0.5700 
@<TRIPOS>BOND
  1   1   2  1   
  2   2   3  ar  
  3   2  14  ar  
  4   3   4  1   
  5   3   5  ar  
  6   5   6  1   
  7   5  10  ar  
  8   6   7  1   
  9   6   8  1   
 10   6   9  1   
 11  10  11  1   
 12  10  12  ar  
 13  12  13  1   
 14  12  14  ar  
 15  14  15  1   
 16  15  16  1   
 17  15  34  am  
 18  16  17  1   
 19  16  21  2   
 20  17  18  1   
 21  17  19  1   
 22  17  20  1   
 23  21  22  1   
 24  21  23  1   
 25  23  24  1   
 26  23  28  2   
 27  24  25  1   
 28  24  26  1   
 29  24  27  1   
 30  28  29  1   
 31  28  34  1   
 32  29  30  2   
 33  29  31  am  
 34  31  32  1   
 35  31  33  1   
 36  34  35  2   
@<TRIPOS>SUBSTRUCTURE
  1 ****  15 GROUP 4 **** **** 0

# MOE 2022.02 (io_trps.svl 2020.11)

@<TRIPOS>MOLECULE
CEP168
32 33 1 0 0 
SMALL
USER_CHARGES


@<TRIPOS>ATOM
  1 H        2.7650     4.1160    -0.1020 H     1 <1>   0.1500 
  2 C        1.6900     3.9630    -0.0460 C.ar  1 <1>  -0.1500 
  3 C        0.8920     4.8650     0.6590 C.ar  1 <1>  -0.1500 
  4 H        1.3480     5.7180     1.1570 H     1 <1>   0.1500 
  5 C       -0.4900     4.6690     0.7350 C.ar  1 <1>  -0.1500 
  6 H       -1.0940     5.3680     1.3090 H     1 <1>   0.1500 
  7 C       -1.0750     3.5660     0.0960 C.ar  1 <1>   0.0860 
  8 C       -2.5360     3.3290     0.1730 C.2   1 <1>   0.5440 
  9 O       -2.9380     2.2060     0.4390 O.2   1 <1>  -0.5700 
 10 N       -3.3060     4.4530    -0.0700 N.am  1 <1>  -0.5470 
 11 H       -2.7990     5.3040    -0.3160 H     1 <1>   0.3700 
 12 C       -4.7210     4.5810    -0.0250 C.ar  1 <1>   0.1170 
 13 C       -5.5440     3.5050     0.3290 C.ar  1 <1>  -0.1500 
 14 H       -5.1320     2.5320     0.5840 H     1 <1>   0.1500 
 15 C       -6.9420     3.6310     0.3770 C.ar  1 <1>  -0.1500 
 16 H       -7.5160     2.7540     0.6620 H     1 <1>   0.1500 
 17 C       -7.5540     4.8410     0.0700 C.ar  1 <1>   0.0820 
 18 O       -8.8960     5.0930     0.0820 O.3   1 <1>  -0.3630 
 19 C       -9.7550     4.0090     0.4180 C.3   1 <1>   0.2800 
 20 H      -10.7860     4.3740     0.3750 H     1 <1>   0.0000 
 21 H       -9.6590     3.1920    -0.3040 H     1 <1>   0.0000 
 22 H       -9.5670     3.6600     1.4390 H     1 <1>   0.0000 
 23 C       -6.7600     5.9290    -0.2860 C.ar  1 <1>  -0.1500 
 24 H       -7.2500     6.8720    -0.5230 H     1 <1>   0.1500 
 25 C       -5.3580     5.8040    -0.3350 C.ar  1 <1>   0.1330 
 26 N       -4.5920     6.9970    -0.7250 N.pl3 1 <1>   0.9070 
 27 O       -3.3730     7.0100    -0.4890 O.2   1 <1>  -0.5200 
 28 O       -5.2020     7.9270    -1.2710 O.2   1 <1>  -0.5200 
 29 C       -0.2690     2.6670    -0.6010 C.ar  1 <1>   0.1900 
 30 F       -0.7970     1.6160    -1.2440 F     1 <1>  -0.1900 
 31 C        1.1090     2.8620    -0.6760 C.ar  1 <1>  -0.1500 
 32 H        1.7200     2.1550    -1.2290 H     1 <1>   0.1500 
@<TRIPOS>BOND
  1   1   2  1   
  2   2   3  ar  
  3   2  31  ar  
  4   3   4  1   
  5   3   5  ar  
  6   5   6  1   
  7   5   7  ar  
  8   7   8  1   
  9   7  29  ar  
 10   8   9  2   
 11   8  10  am  
 12  10  11  1   
 13  10  12  1   
 14  12  13  ar  
 15  12  25  ar  
 16  13  14  1   
 17  13  15  ar  
 18  15  16  1   
 19  15  17  ar  
 20  17  18  1   
 21  17  23  ar  
 22  18  19  1   
 23  19  20  1   
 24  19  21  1   
 25  19  22  1   
 26  23  24  1   
 27  23  25  ar  
 28  25  26  1   
 29  26  27  2   
 30  26  28  2   
 31  29  30  1   
 32  29  31  ar  
 33  31  32  1   
@<TRIPOS>SUBSTRUCTURE
  1 ****  10 GROUP 4 **** **** 0

# MOE 2022.02 (io_trps.svl 2020.11)

@<TRIPOS>MOLECULE
CEP169
36 38 1 0 0 
SMALL
USER_CHARGES


@<TRIPOS>ATOM
  1 H        0.0200    -4.5530    -1.0340 H     1 <1>   0.4500 
  2 O        0.6490    -3.9740    -0.5700 O.3   1 <1>  -0.5270 
  3 C        0.0150    -2.7700    -0.3700 C.2   1 <1>   0.1770 
  4 C        0.7080    -1.6010    -0.3510 C.2   1 <1>   0.0290 
  5 C        2.1790    -1.5480    -0.6120 C.2   1 <1>   0.6160 
  6 O        2.6360    -0.6700    -1.3350 O.2   1 <1>  -0.5700 
  7 N        2.9030    -2.5420     0.0200 N.am  1 <1>  -0.5470 
  8 H        2.3620    -3.2520     0.5010 H     1 <1>   0.3700 
  9 C        4.3020    -2.7030     0.0590 C.ar  1 <1>   0.1170 
 10 C        4.7980    -3.8200     0.7410 C.ar  1 <1>  -0.1500 
 11 H        4.1220    -4.5320     1.2070 H     1 <1>   0.1500 
 12 C        6.1750    -4.0500     0.8350 C.ar  1 <1>  -0.1500 
 13 H        6.5320    -4.9300     1.3650 H     1 <1>   0.1500 
 14 C        7.0810    -3.1580     0.2570 C.ar  1 <1>  -0.1440 
 15 C        8.5570    -3.4160     0.3280 C.3   1 <1>   0.1440 
 16 H        8.8190    -3.9180     1.2660 H     1 <1>   0.0000 
 17 H        8.8670    -4.0480    -0.5100 H     1 <1>   0.0000 
 18 H        9.1210    -2.4780     0.2930 H     1 <1>   0.0000 
 19 C        6.5860    -2.0500    -0.4370 C.ar  1 <1>  -0.1500 
 20 H        7.2680    -1.3480    -0.9120 H     1 <1>   0.1500 
 21 C        5.2080    -1.8210    -0.5300 C.ar  1 <1>  -0.1500 
 22 H        4.8770    -0.9390    -1.0690 H     1 <1>   0.1500 
 23 C       -0.0390    -0.3030    -0.1330 C.2   1 <1>   0.6420 
 24 O        0.5000     0.7890    -0.0150 O.2   1 <1>  -0.5700 
 25 C       -1.4700    -0.4710    -0.0210 C.2   1 <1>  -0.0860 
 26 C       -2.5390     0.4190     0.1530 C.2   1 <1>   0.1390 
 27 H       -2.5110     1.4990     0.2350 H     1 <1>   0.1500 
 28 N       -3.7190    -0.2140     0.2230 N.2   1 <1>  -0.7070 
 29 N       -3.3950    -1.5240     0.0980 N.pl3 1 <1>   0.3140 
 30 C       -4.4490    -2.5060     0.1350 C.3   1 <1>   0.2560 
 31 H       -4.9940    -2.3940     1.0760 H     1 <1>   0.0000 
 32 H       -5.1130    -2.3290    -0.7150 H     1 <1>   0.0000 
 33 H       -4.0260    -3.5110     0.0710 H     1 <1>   0.0000 
 34 C       -2.0530    -1.7110    -0.0530 C.2   1 <1>  -0.0680 
 35 N       -1.3560    -2.8540    -0.1970 N.pl3 1 <1>  -0.5840 
 36 H       -1.7770    -3.7760    -0.1710 H     1 <1>   0.4000 
@<TRIPOS>BOND
  1   1   2  1   
  2   2   3  1   
  3   3   4  2   
  4   3  35  1   
  5   4   5  1   
  6   4  23  1   
  7   5   6  2   
  8   5   7  am  
  9   7   8  1   
 10   7   9  1   
 11   9  10  ar  
 12   9  21  ar  
 13  10  11  1   
 14  10  12  ar  
 15  12  13  1   
 16  12  14  ar  
 17  14  15  1   
 18  14  19  ar  
 19  15  16  1   
 20  15  17  1   
 21  15  18  1   
 22  19  20  1   
 23  19  21  ar  
 24  21  22  1   
 25  23  24  2   
 26  23  25  1   
 27  25  26  1   
 28  25  34  2   
 29  26  27  1   
 30  26  28  2   
 31  28  29  1   
 32  29  30  1   
 33  29  34  1   
 34  30  31  1   
 35  30  32  1   
 36  30  33  1   
 37  34  35  1   
 38  35  36  1   
@<TRIPOS>SUBSTRUCTURE
  1 ****   4 GROUP 4 **** **** 0

# MOE 2022.02 (io_trps.svl 2020.11)

@<TRIPOS>MOLECULE
CEP170
37 39 1 0 0 
SMALL
USER_CHARGES


@<TRIPOS>ATOM
  1 H       -4.1650     0.9700    -0.9590 H     1 <1>   0.1500 
  2 C       -3.7060     1.9440    -0.8070 C.ar  1 <1>  -0.1500 
  3 C       -4.4970     3.0860    -0.7510 C.ar  1 <1>  -0.1500 
  4 H       -5.5760     3.0080    -0.8590 H     1 <1>   0.1500 
  5 C       -3.9080     4.3390    -0.5700 C.ar  1 <1>  -0.1500 
  6 H       -4.5650     5.2030    -0.5560 H     1 <1>   0.1500 
  7 C       -2.5200     4.4710    -0.4330 C.ar  1 <1>   0.1170 
  8 N       -1.8980     5.7360    -0.2950 N.am  1 <1>  -0.5470 
  9 H       -0.8770     5.7060    -0.3180 H     1 <1>   0.3700 
 10 C       -2.4830     6.9800    -0.1500 C.2   1 <1>   0.5690 
 11 O       -3.6820     7.2180    -0.0730 O.2   1 <1>  -0.5700 
 12 C       -1.4310     8.0770    -0.0820 C.3   1 <1>   0.0610 
 13 H       -0.7810     7.8800     0.7780 H     1 <1>   0.0000 
 14 H       -0.8180     8.0270    -0.9890 H     1 <1>   0.0000 
 15 C       -2.0370     9.4630     0.0450 C.3   1 <1>   0.0000 
 16 H       -1.2500    10.2210     0.0860 H     1 <1>   0.0000 
 17 H       -2.6400     9.5460     0.9560 H     1 <1>   0.0000 
 18 H       -2.6860     9.6880    -0.8080 H     1 <1>   0.0000 
 19 C       -1.7190     3.3010    -0.4570 C.ar  1 <1>   0.0860 
 20 C       -0.2320     3.3830    -0.2770 C.2   1 <1>   0.3640 
 21 N        0.4030     4.4300    -0.7390 N.2   1 <1>  -0.6290 
 22 C        1.8000     4.5010    -0.5940 C.ar  1 <1>   0.1790 
 23 C        2.4740     5.6050    -1.1170 C.ar  1 <1>  -0.1500 
 24 H        1.9160     6.3850    -1.6290 H     1 <1>   0.1500 
 25 C        3.8620     5.7120    -0.9950 C.ar  1 <1>  -0.1500 
 26 H        4.3770     6.5760    -1.4090 H     1 <1>   0.1500 
 27 C        4.5860     4.7100    -0.3480 C.ar  1 <1>  -0.1500 
 28 H        5.6670     4.7960    -0.2560 H     1 <1>   0.1500 
 29 C        3.9260     3.6000     0.1780 C.ar  1 <1>  -0.1500 
 30 H        4.4990     2.8250     0.6790 H     1 <1>   0.1500 
 31 C        2.5400     3.5020     0.0500 C.ar  1 <1>   0.1170 
 32 N        1.8690     2.3990     0.5780 N.am  1 <1>  -0.5470 
 33 H        2.3700     1.6660     1.0590 H     1 <1>   0.3700 
 34 C        0.5070     2.2600     0.4800 C.2   1 <1>   0.6300 
 35 O       -0.0780     1.3140     0.9840 O.2   1 <1>  -0.5700 
 36 C       -2.3230     2.0500    -0.6660 C.ar  1 <1>  -0.1500 
 37 H       -1.7330     1.1400    -0.7280 H     1 <1>   0.1500 
@<TRIPOS>BOND
  1   1   2  1   
  2   2   3  ar  
  3   2  36  ar  
  4   3   4  1   
  5   3   5  ar  
  6   5   6  1   
  7   5   7  ar  
  8   7   8  1   
  9   7  19  ar  
 10   8   9  1   
 11   8  10  am  
 12  10  11  2   
 13  10  12  1   
 14  12  13  1   
 15  12  14  1   
 16  12  15  1   
 17  15  16  1   
 18  15  17  1   
 19  15  18  1   
 20  19  20  1   
 21  19  36  ar  
 22  20  21  2   
 23  20  34  1   
 24  21  22  1   
 25  22  23  ar  
 26  22  31  ar  
 27  23  24  1   
 28  23  25  ar  
 29  25  26  1   
 30  25  27  ar  
 31  27  28  1   
 32  27  29  ar  
 33  29  30  1   
 34  29  31  ar  
 35  31  32  1   
 36  32  33  1   
 37  32  34  am  
 38  34  35  2   
 39  36  37  1   
@<TRIPOS>SUBSTRUCTURE
  1 ****  21 GROUP 4 **** **** 0

# MOE 2022.02 (io_trps.svl 2020.11)

@<TRIPOS>MOLECULE
CEP171
40 41 1 0 0 
SMALL
USER_CHARGES


@<TRIPOS>ATOM
  1 H       -8.6420    -4.5860     2.5680 H     1 <1>   0.1500 
  2 C       -7.7440    -5.0580     2.1790 C.ar  1 <1>  -0.1500 
  3 C       -7.6780    -5.4330     0.8390 C.ar  1 <1>  -0.1500 
  4 H       -8.5240    -5.2510     0.1820 H     1 <1>   0.1500 
  5 C       -6.5240    -6.0390     0.3390 C.ar  1 <1>  -0.1500 
  6 H       -6.4840    -6.3160    -0.7130 H     1 <1>   0.1500 
  7 C       -5.4280    -6.2810     1.1780 C.ar  1 <1>  -0.1440 
  8 C       -4.1740    -6.9180     0.6330 C.3   1 <1>   0.2040 
  9 H       -3.7330    -7.5820     1.3860 H     1 <1>   0.0000 
 10 H       -4.4210    -7.5570    -0.2240 H     1 <1>   0.0000 
 11 C       -3.1570    -5.8940     0.1810 C.2   1 <1>   0.3890 
 12 N       -3.3700    -5.2110    -0.9070 N.2   1 <1>  -0.6610 
 13 C       -2.4310    -4.2980    -1.2970 C.2   1 <1>   0.7200 
 14 O       -1.3360    -4.6240    -1.7420 O.2   1 <1>  -0.5700 
 15 C       -2.8670    -2.8650    -1.1760 C.3   1 <1>   0.0610 
 16 H       -2.0650    -2.2050    -1.5180 H     1 <1>   0.0000 
 17 H       -3.0910    -2.6350    -0.1310 H     1 <1>   0.0000 
 18 H       -3.7530    -2.6960    -1.7940 H     1 <1>   0.0000 
 19 C       -1.9470    -5.7550     1.0940 C.2   1 <1>   0.6300 
 20 O       -2.1610    -5.4440     2.2550 O.2   1 <1>  -0.5700 
 21 N       -0.7490    -6.0450     0.4800 N.am  1 <1>  -0.5470 
 22 H       -0.7820    -6.1350    -0.5340 H     1 <1>   0.3700 
 23 C        0.5190    -6.1970     1.0860 C.ar  1 <1>   0.1170 
 24 C        0.6960    -6.1240     2.4730 C.ar  1 <1>  -0.1500 
 25 H       -0.1350    -5.9440     3.1470 H     1 <1>   0.1500 
 26 C        1.9600    -6.2840     3.0470 C.ar  1 <1>  -0.1500 
 27 H        2.0750    -6.2210     4.1260 H     1 <1>   0.1500 
 28 C        3.0670    -6.5190     2.2410 C.ar  1 <1>  -0.1500 
 29 H        4.0510    -6.6400     2.6870 H     1 <1>   0.1500 
 30 C        2.9100    -6.5960     0.8600 C.ar  1 <1>  -0.1500 
 31 H        3.7880    -6.7770     0.2430 H     1 <1>   0.1500 
 32 C        1.6440    -6.4420     0.2660 C.ar  1 <1>  -0.1440 
 33 C        1.5500    -6.5250    -1.2340 C.3   1 <1>   0.1440 
 34 H        0.8270    -7.2900    -1.5330 H     1 <1>   0.0000 
 35 H        1.2570    -5.5550    -1.6480 H     1 <1>   0.0000 
 36 H        2.5110    -6.7980    -1.6840 H     1 <1>   0.0000 
 37 C       -5.5020    -5.8920     2.5220 C.ar  1 <1>  -0.1500 
 38 H       -4.6590    -6.0540     3.1920 H     1 <1>   0.1500 
 39 C       -6.6560    -5.2860     3.0200 C.ar  1 <1>  -0.1500 
 40 H       -6.7040    -4.9870     4.0640 H     1 <1>   0.1500 
@<TRIPOS>BOND
  1   1   2  1   
  2   2   3  ar  
  3   2  39  ar  
  4   3   4  1   
  5   3   5  ar  
  6   5   6  1   
  7   5   7  ar  
  8   7   8  1   
  9   7  37  ar  
 10   8   9  1   
 11   8  10  1   
 12   8  11  1   
 13  11  12  2   
 14  11  19  1   
 15  12  13  1   
 16  13  14  2   
 17  13  15  1   
 18  15  16  1   
 19  15  17  1   
 20  15  18  1   
 21  19  20  2   
 22  19  21  am  
 23  21  22  1   
 24  21  23  1   
 25  23  24  ar  
 26  23  32  ar  
 27  24  25  1   
 28  24  26  ar  
 29  26  27  1   
 30  26  28  ar  
 31  28  29  1   
 32  28  30  ar  
 33  30  31  1   
 34  30  32  ar  
 35  32  33  1   
 36  33  34  1   
 37  33  35  1   
 38  33  36  1   
 39  37  38  1   
 40  37  39  ar  
 41  39  40  1   
@<TRIPOS>SUBSTRUCTURE
  1 ****  19 GROUP 4 **** **** 0

# MOE 2022.02 (io_trps.svl 2020.11)

@<TRIPOS>MOLECULE
CEP172
35 36 1 0 0 
SMALL
USER_CHARGES


@<TRIPOS>ATOM
  1 H      -10.5380     5.1300     0.1460 H     1 <1>   0.1500 
  2 C       -9.4690     4.9310     0.1010 C.ar  1 <1>  -0.1500 
  3 C       -8.5780     5.7400     0.8060 C.ar  1 <1>  -0.1500 
  4 H       -8.9560     6.5640     1.4060 H     1 <1>   0.1500 
  5 C       -7.2060     5.4830     0.7540 C.ar  1 <1>  -0.1500 
  6 H       -6.5320     6.1000     1.3410 H     1 <1>   0.1500 
  7 C       -6.7250     4.4140    -0.0140 C.ar  1 <1>   0.0860 
  8 C       -5.2700     4.1010    -0.0960 C.2   1 <1>   0.5440 
  9 O       -4.9320     2.9250    -0.1590 O.2   1 <1>  -0.5700 
 10 N       -4.4440     5.2080    -0.1400 N.am  1 <1>  -0.5470 
 11 H       -4.8820     6.1130    -0.1950 H     1 <1>   0.3700 
 12 C       -3.0300     5.2370    -0.1250 C.ar  1 <1>   0.1170 
 13 C       -2.2570     4.0930     0.1050 C.ar  1 <1>  -0.1500 
 14 H       -2.7160     3.1200     0.2530 H     1 <1>   0.1500 
 15 C       -0.8620     4.1690     0.1800 C.ar  1 <1>  -0.1500 
 16 H       -0.3160     3.2500     0.3650 H     1 <1>   0.1500 
 17 C       -0.2190     5.3920     0.0280 C.ar  1 <1>   0.0820 
 18 O        1.1310     5.6070     0.0840 O.3   1 <1>  -0.3630 
 19 C        1.9590     4.4680     0.3100 C.3   1 <1>   0.2800 
 20 H        1.8270     3.7350    -0.4950 H     1 <1>   0.0000 
 21 H        1.7220     4.0110     1.2780 H     1 <1>   0.0000 
 22 C        3.4040     4.9340     0.3220 C.3   1 <1>   0.0000 
 23 H        4.0830     4.0940     0.4950 H     1 <1>   0.0000 
 24 H        3.6640     5.4080    -0.6290 H     1 <1>   0.0000 
 25 H        3.5610     5.6820     1.1060 H     1 <1>   0.0000 
 26 C       -0.9850     6.5360    -0.2090 C.ar  1 <1>  -0.1500 
 27 H       -0.4710     7.4850    -0.3410 H     1 <1>   0.1500 
 28 C       -2.3840     6.4800    -0.3040 C.ar  1 <1>   0.1000 
 29 N       -3.0740     7.6570    -0.5890 N.pl3 1 <1>  -0.9000 
 30 H       -2.5860     8.5410    -0.5250 H     1 <1>   0.4000 
 31 H       -4.0350     7.6710    -0.8860 H     1 <1>   0.4000 
 32 C       -7.6250     3.5920    -0.7040 C.ar  1 <1>  -0.1500 
 33 H       -7.2590     2.7470    -1.2840 H     1 <1>   0.1500 
 34 C       -8.9950     3.8550    -0.6500 C.ar  1 <1>  -0.1500 
 35 H       -9.6910     3.2170    -1.1890 H     1 <1>   0.1500 
@<TRIPOS>BOND
  1   1   2  1   
  2   2   3  ar  
  3   2  34  ar  
  4   3   4  1   
  5   3   5  ar  
  6   5   6  1   
  7   5   7  ar  
  8   7   8  1   
  9   7  32  ar  
 10   8   9  2   
 11   8  10  am  
 12  10  11  1   
 13  10  12  1   
 14  12  13  ar  
 15  12  28  ar  
 16  13  14  1   
 17  13  15  ar  
 18  15  16  1   
 19  15  17  ar  
 20  17  18  1   
 21  17  26  ar  
 22  18  19  1   
 23  19  20  1   
 24  19  21  1   
 25  19  22  1   
 26  22  23  1   
 27  22  24  1   
 28  22  25  1   
 29  26  27  1   
 30  26  28  ar  
 31  28  29  1   
 32  29  30  1   
 33  29  31  1   
 34  32  33  1   
 35  32  34  ar  
 36  34  35  1   
@<TRIPOS>SUBSTRUCTURE
  1 ****  12 GROUP 4 **** **** 0

# MOE 2022.02 (io_trps.svl 2020.11)

@<TRIPOS>MOLECULE
CEP173
33 35 1 0 0 
SMALL
USER_CHARGES


@<TRIPOS>ATOM
  1 H        0.2570     0.7080     1.2620 H     1 <1>   0.4500 
  2 O        0.8830     0.1720     0.7470 O.3   1 <1>  -0.5270 
  3 C        0.2300    -0.9950     0.4230 C.2   1 <1>   0.1770 
  4 C        0.9110    -2.1450     0.2330 C.2   1 <1>   0.0290 
  5 C        2.3920    -2.2440     0.4240 C.2   1 <1>   0.6160 
  6 O        2.8740    -3.2120     1.0010 O.2   1 <1>  -0.5700 
  7 N        3.0990    -1.1720    -0.0890 N.am  1 <1>  -0.5470 
  8 H        2.5410    -0.4030    -0.4430 H     1 <1>   0.3700 
  9 C        4.4960    -1.0100    -0.1560 C.ar  1 <1>   0.1170 
 10 C        4.9720     0.2040    -0.6770 C.ar  1 <1>  -0.1500 
 11 H        4.2810     0.9770    -1.0050 H     1 <1>   0.1500 
 12 C        6.3440     0.4450    -0.7790 C.ar  1 <1>  -0.1500 
 13 H        6.7150     1.3820    -1.1790 H     1 <1>   0.1500 
 14 C        7.2410    -0.5290    -0.3630 C.ar  1 <1>   0.1900 
 15 F        8.5570    -0.3000    -0.4600 F     1 <1>  -0.1900 
 16 C        6.7900    -1.7380     0.1510 C.ar  1 <1>  -0.1500 
 17 H        7.5050    -2.4890     0.4700 H     1 <1>   0.1500 
 18 C        5.4170    -1.9790     0.2530 C.ar  1 <1>  -0.1500 
 19 H        5.0970    -2.9370     0.6530 H     1 <1>   0.1500 
 20 C        0.1170    -3.3620    -0.1200 C.2   1 <1>   0.4690 
 21 O        0.6420    -4.4250    -0.4380 O.2   1 <1>  -0.5700 
 22 C       -1.3630    -3.2510    -0.1330 C.ar  1 <1>   0.0860 
 23 C       -2.1580    -4.3770    -0.3700 C.ar  1 <1>  -0.1500 
 24 H       -1.6980    -5.3500    -0.5340 H     1 <1>   0.1500 
 25 C       -3.5460    -4.2490    -0.3950 C.ar  1 <1>  -0.1500 
 26 H       -4.1690    -5.1220    -0.5780 H     1 <1>   0.1500 
 27 C       -4.1340    -3.0010    -0.1880 C.ar  1 <1>  -0.1500 
 28 H       -5.2170    -2.9030    -0.2080 H     1 <1>   0.1500 
 29 C       -3.3360    -1.8760     0.0450 C.ar  1 <1>  -0.1500 
 30 H       -3.8170    -0.9150     0.2060 H     1 <1>   0.1500 
 31 C       -1.9430    -1.9920     0.0720 C.ar  1 <1>   0.1000 
 32 N       -1.1290    -0.8810     0.3160 N.pl3 1 <1>  -0.6000 
 33 H       -1.5710     0.0240     0.3990 H     1 <1>   0.4000 
@<TRIPOS>BOND
  1   1   2  1   
  2   2   3  1   
  3   3   4  2   
  4   3  32  1   
  5   4   5  1   
  6   4  20  1   
  7   5   6  2   
  8   5   7  am  
  9   7   8  1   
 10   7   9  1   
 11   9  10  ar  
 12   9  18  ar  
 13  10  11  1   
 14  10  12  ar  
 15  12  13  1   
 16  12  14  ar  
 17  14  15  1   
 18  14  16  ar  
 19  16  17  1   
 20  16  18  ar  
 21  18  19  1   
 22  20  21  2   
 23  20  22  1   
 24  22  23  ar  
 25  22  31  ar  
 26  23  24  1   
 27  23  25  ar  
 28  25  26  1   
 29  25  27  ar  
 30  27  28  1   
 31  27  29  ar  
 32  29  30  1   
 33  29  31  ar  
 34  31  32  1   
 35  32  33  1   
@<TRIPOS>SUBSTRUCTURE
  1 ****   4 GROUP 4 **** **** 0

# MOE 2022.02 (io_trps.svl 2020.11)

@<TRIPOS>MOLECULE
CEP174
32 34 1 0 0 
SMALL
USER_CHARGES


@<TRIPOS>ATOM
  1 H        2.4030     2.8200     0.3170 H     1 <1>   0.1500 
  2 C        1.3710     3.1560     0.2530 C.ar  1 <1>  -0.1500 
  3 C        0.4670     2.4810    -0.5630 C.ar  1 <1>  -0.1500 
  4 H        0.7920     1.6180    -1.1390 H     1 <1>   0.1500 
  5 C       -0.8630     2.9090    -0.6480 C.ar  1 <1>  -0.1500 
  6 H       -1.5310     2.3540    -1.2990 H     1 <1>   0.1500 
  7 C       -1.2990     4.0140     0.0840 C.ar  1 <1>   0.1170 
  8 N       -2.6180     4.5120     0.0510 N.am  1 <1>  -0.5470 
  9 H       -2.7930     5.3290     0.6230 H     1 <1>   0.3700 
 10 C       -3.6880     4.0060    -0.6610 C.2   1 <1>   0.6160 
 11 O       -3.7150     2.9970    -1.3530 O.2   1 <1>  -0.5700 
 12 C       -4.9270     4.8200    -0.4850 C.2   1 <1>  -0.0140 
 13 C       -4.8820     6.0890    -0.9250 C.2   1 <1>  -0.1360 
 14 H       -4.0050     6.5280    -1.3850 H     1 <1>   0.1500 
 15 C       -6.0600     6.9770    -0.8220 C.2   1 <1>   0.6160 
 16 O       -5.9960     8.1410    -1.2000 O.2   1 <1>  -0.5700 
 17 N       -7.1950     6.4410    -0.2850 N.am  1 <1>  -0.5470 
 18 H       -7.9920     7.0600    -0.2240 H     1 <1>   0.3700 
 19 C       -7.2920     5.1180     0.1650 C.ar  1 <1>   0.1170 
 20 C       -8.4990     4.6630     0.6970 C.ar  1 <1>  -0.1500 
 21 H       -9.3630     5.3180     0.7650 H     1 <1>   0.1500 
 22 C       -8.6020     3.3470     1.1460 C.ar  1 <1>  -0.1500 
 23 H       -9.5410     2.9840     1.5590 H     1 <1>   0.1500 
 24 C       -7.5030     2.4940     1.0620 C.ar  1 <1>  -0.1500 
 25 H       -7.5850     1.4660     1.4070 H     1 <1>   0.1500 
 26 C       -6.2950     2.9530     0.5300 C.ar  1 <1>  -0.1500 
 27 H       -5.4580     2.2590     0.4700 H     1 <1>   0.1500 
 28 C       -6.1750     4.2720     0.0740 C.ar  1 <1>   0.0280 
 29 C       -0.3810     4.6870     0.9030 C.ar  1 <1>  -0.1500 
 30 H       -0.6840     5.5510     1.4870 H     1 <1>   0.1500 
 31 C        0.9470     4.2600     0.9870 C.ar  1 <1>  -0.1500 
 32 H        1.6500     4.7890     1.6260 H     1 <1>   0.1500 
@<TRIPOS>BOND
  1   1   2  1   
  2   2   3  ar  
  3   2  31  ar  
  4   3   4  1   
  5   3   5  ar  
  6   5   6  1   
  7   5   7  ar  
  8   7   8  1   
  9   7  29  ar  
 10   8   9  1   
 11   8  10  am  
 12  10  11  2   
 13  10  12  1   
 14  12  13  2   
 15  12  28  1   
 16  13  14  1   
 17  13  15  1   
 18  15  16  2   
 19  15  17  am  
 20  17  18  1   
 21  17  19  1   
 22  19  20  ar  
 23  19  28  ar  
 24  20  21  1   
 25  20  22  ar  
 26  22  23  1   
 27  22  24  ar  
 28  24  25  1   
 29  24  26  ar  
 30  26  27  1   
 31  26  28  ar  
 32  29  30  1   
 33  29  31  ar  
 34  31  32  1   
@<TRIPOS>SUBSTRUCTURE
  1 ****  10 GROUP 4 **** **** 0

# MOE 2022.02 (io_trps.svl 2020.11)

@<TRIPOS>MOLECULE
CEP175
35 37 1 0 0 
SMALL
USER_CHARGES


@<TRIPOS>ATOM
  1 H       -0.5390    -0.7700     2.5990 H     1 <1>   0.1500 
  2 C       -0.6190    -1.1010     1.5640 C.2   1 <1>   0.0210 
  3 N       -1.8860    -1.4540     1.1880 N.2   1 <1>  -0.6210 
  4 C       -2.0530    -1.8590    -0.0320 C.2   1 <1>   0.4960 
  5 C       -3.4170    -2.2540    -0.4790 C.2   1 <1>  -0.1360 
  6 H       -4.2190    -2.1840     0.2450 H     1 <1>   0.1500 
  7 C       -3.6110    -2.6760    -1.7340 C.2   1 <1>  -0.1500 
  8 H       -4.5980    -2.9690    -2.0790 H     1 <1>   0.1500 
  9 C       -2.5100    -2.7510    -2.6560 C.2   1 <1>  -0.1500 
 10 H       -2.6980    -3.0970    -3.6680 H     1 <1>   0.1500 
 11 C       -1.2820    -2.3970    -2.2600 C.2   1 <1>  -0.0410 
 12 H       -0.4370    -2.4460    -2.9430 H     1 <1>   0.1500 
 13 N       -1.0270    -1.9520    -0.9660 N.am  1 <1>  -0.2290 
 14 C        0.2700    -1.5970    -0.6120 C.2   1 <1>   0.6160 
 15 O        1.2360    -1.6480    -1.3790 O.2   1 <1>  -0.5700 
 16 C        0.4680    -1.1350     0.7820 C.2   1 <1>   0.0290 
 17 C        1.7800    -0.7120     1.3660 C.2   1 <1>   0.6160 
 18 O        1.8380    -0.3430     2.5360 O.2   1 <1>  -0.5700 
 19 N        2.8460    -0.7810     0.4940 N.am  1 <1>  -0.5470 
 20 H        2.6420    -1.1040    -0.4540 H     1 <1>   0.3700 
 21 C        4.1970    -0.4600     0.7430 C.ar  1 <1>   0.1170 
 22 C        4.6820    -0.0060     1.9690 C.ar  1 <1>  -0.1500 
 23 H        4.0320     0.1310     2.8270 H     1 <1>   0.1500 
 24 C        6.0400     0.2860     2.1260 C.ar  1 <1>  -0.1500 
 25 H        6.4040     0.6390     3.0880 H     1 <1>   0.1500 
 26 C        6.9270     0.1290     1.0600 C.ar  1 <1>  -0.1500 
 27 H        7.9720     0.3670     1.2250 H     1 <1>   0.1500 
 28 C        6.4570    -0.3230    -0.1710 C.ar  1 <1>   0.0820 
 29 O        7.2100    -0.5220    -1.2960 O.3   1 <1>  -0.3630 
 30 C        8.6020    -0.2470    -1.1940 C.3   1 <1>   0.2800 
 31 H        9.0560    -0.4560    -2.1670 H     1 <1>   0.0000 
 32 H        8.7800     0.8090    -0.9640 H     1 <1>   0.0000 
 33 H        9.0800    -0.9000    -0.4560 H     1 <1>   0.0000 
 34 C        5.0960    -0.6140    -0.3210 C.ar  1 <1>  -0.1500 
 35 H        4.7470    -0.9660    -1.2890 H     1 <1>   0.1500 
@<TRIPOS>BOND
  1   1   2  1   
  2   2   3  1   
  3   2  16  2   
  4   3   4  2   
  5   4   5  1   
  6   4  13  1   
  7   5   6  1   
  8   5   7  2   
  9   7   8  1   
 10   7   9  1   
 11   9  10  1   
 12   9  11  2   
 13  11  12  1   
 14  11  13  1   
 15  13  14  am  
 16  14  15  2   
 17  14  16  1   
 18  16  17  1   
 19  17  18  2   
 20  17  19  am  
 21  19  20  1   
 22  19  21  1   
 23  21  22  ar  
 24  21  34  ar  
 25  22  23  1   
 26  22  24  ar  
 27  24  25  1   
 28  24  26  ar  
 29  26  27  1   
 30  26  28  ar  
 31  28  29  1   
 32  28  34  ar  
 33  29  30  1   
 34  30  31  1   
 35  30  32  1   
 36  30  33  1   
 37  34  35  1   
@<TRIPOS>SUBSTRUCTURE
  1 ****  19 GROUP 4 **** **** 0

# MOE 2022.02 (io_trps.svl 2020.11)

@<TRIPOS>MOLECULE
CEP176
36 37 1 0 0 
SMALL
USER_CHARGES


@<TRIPOS>ATOM
  1 H        0.7400    -4.5600     3.5800 H     1 <1>   0.1500 
  2 C       -0.1090    -4.5490     2.9020 C.ar  1 <1>  -0.1500 
  3 C       -0.2130    -3.5560     1.9300 C.ar  1 <1>  -0.1500 
  4 H        0.5550    -2.7910     1.8480 H     1 <1>   0.1500 
  5 C       -1.3040    -3.5380     1.0550 C.ar  1 <1>  -0.1500 
  6 H       -1.3460    -2.7470     0.3120 H     1 <1>   0.1500 
  7 C       -2.3000    -4.5110     1.1460 C.ar  1 <1>   0.1170 
  8 N       -3.4290    -4.5660     0.3080 N.am  1 <1>  -0.5470 
  9 H       -4.0770    -5.3370     0.4800 H     1 <1>   0.3700 
 10 C       -3.7790    -3.6960    -0.7120 C.2   1 <1>   0.5690 
 11 O       -3.1800    -2.6760    -1.0430 O.2   1 <1>  -0.5700 
 12 C       -5.0670    -4.1130    -1.4300 C.3   1 <1>   0.3610 
 13 H       -5.0180    -5.1890    -1.6360 H     1 <1>   0.0000 
 14 H       -5.1190    -3.6210    -2.4050 H     1 <1>   0.0000 
 15 N       -6.2500    -3.8180    -0.6110 N.am  1 <1>  -0.4690 
 16 C       -6.9640    -2.6280    -0.7580 C.2   1 <1>  -0.0290 
 17 C       -6.5110    -1.5860    -1.7460 C.3   1 <1>   0.1380 
 18 H       -6.5820    -1.9660    -2.7700 H     1 <1>   0.0000 
 19 H       -5.4810    -1.2780    -1.5460 H     1 <1>   0.0000 
 20 H       -7.1290    -0.6820    -1.6970 H     1 <1>   0.0000 
 21 C       -8.0520    -2.4110     0.0010 C.2   1 <1>  -0.1500 
 22 H       -8.6150    -1.4860    -0.0970 H     1 <1>   0.1500 
 23 C       -8.5190    -3.3830     0.9710 C.2   1 <1>  -0.1380 
 24 C       -9.7670    -2.9880     1.7160 C.3   1 <1>   0.1380 
 25 H      -10.5970    -2.8390     1.0160 H     1 <1>   0.0000 
 26 H      -10.0890    -3.7360     2.4460 H     1 <1>   0.0000 
 27 H       -9.6040    -2.0520     2.2620 H     1 <1>   0.0000 
 28 C       -7.8370    -4.5320     1.1460 C.2   1 <1>   0.0790 
 29 C       -8.2260    -5.5300     2.0820 C.1   1 <1>   0.4920 
 30 N       -8.5800    -6.3200     2.8560 N.1   1 <1>  -0.5570 
 31 C       -6.6090    -4.7880     0.3330 C.2   1 <1>   0.6160 
 32 O       -5.9360    -5.8050     0.5130 O.2   1 <1>  -0.5700 
 33 C       -2.1860    -5.5060     2.1260 C.ar  1 <1>  -0.1500 
 34 H       -2.9460    -6.2780     2.2240 H     1 <1>   0.1500 
 35 C       -1.0960    -5.5250     3.0000 C.ar  1 <1>  -0.1500 
 36 H       -1.0210    -6.3020     3.7570 H     1 <1>   0.1500 
@<TRIPOS>BOND
  1   1   2  1   
  2   2   3  ar  
  3   2  35  ar  
  4   3   4  1   
  5   3   5  ar  
  6   5   6  1   
  7   5   7  ar  
  8   7   8  1   
  9   7  33  ar  
 10   8   9  1   
 11   8  10  am  
 12  10  11  2   
 13  10  12  1   
 14  12  13  1   
 15  12  14  1   
 16  12  15  1   
 17  15  16  1   
 18  15  31  am  
 19  16  17  1   
 20  16  21  2   
 21  17  18  1   
 22  17  19  1   
 23  17  20  1   
 24  21  22  1   
 25  21  23  1   
 26  23  24  1   
 27  23  28  2   
 28  24  25  1   
 29  24  26  1   
 30  24  27  1   
 31  28  29  1   
 32  28  31  1   
 33  29  30  3   
 34  31  32  2   
 35  33  34  1   
 36  33  35  ar  
 37  35  36  1   
@<TRIPOS>SUBSTRUCTURE
  1 ****   8 GROUP 4 **** **** 0

# MOE 2022.02 (io_trps.svl 2020.11)

@<TRIPOS>MOLECULE
CEP177
32 34 1 0 0 
SMALL
USER_CHARGES


@<TRIPOS>ATOM
  1 H        2.2200    -2.0570    -0.0770 H     1 <1>   0.1500 
  2 C        1.3660    -2.7290    -0.0220 C.ar  1 <1>  -0.1500 
  3 C        0.1950    -2.3150     0.6130 C.ar  1 <1>  -0.1500 
  4 H        0.1420    -1.3250     1.0580 H     1 <1>   0.1500 
  5 C       -0.9020    -3.1770     0.6890 C.ar  1 <1>  -0.1500 
  6 H       -1.7900    -2.8490     1.2220 H     1 <1>   0.1500 
  7 C       -0.8250    -4.4550     0.1200 C.ar  1 <1>   0.0860 
  8 C       -1.9710    -5.4070     0.1740 C.2   1 <1>   0.5440 
  9 O       -1.7310    -6.5990     0.3200 O.2   1 <1>  -0.5700 
 10 N       -3.2160    -4.8250     0.0070 N.am  1 <1>  -0.5470 
 11 H       -3.2310    -3.8360    -0.2060 H     1 <1>   0.3700 
 12 C       -4.4740    -5.4620     0.0800 C.ar  1 <1>   0.1170 
 13 C       -4.6430    -6.8150     0.3920 C.ar  1 <1>  -0.1500 
 14 H       -3.7960    -7.4620     0.6010 H     1 <1>   0.1500 
 15 C       -5.9210    -7.3830     0.4490 C.ar  1 <1>  -0.1500 
 16 H       -6.0190    -8.4380     0.6930 H     1 <1>   0.1500 
 17 C       -7.0380    -6.5950     0.1930 C.ar  1 <1>   0.1170 
 18 C       -6.8810    -5.2430    -0.1170 C.ar  1 <1>   0.1170 
 19 C       -5.6070    -4.6750    -0.1720 C.ar  1 <1>  -0.1500 
 20 H       -5.4980    -3.6230    -0.4160 H     1 <1>   0.1500 
 21 N       -8.0060    -4.4540    -0.3760 N.am  1 <1>  -0.5470 
 22 H       -7.9150    -3.4740    -0.6040 H     1 <1>   0.3700 
 23 C       -9.2950    -4.9420    -0.3420 C.2   1 <1>   0.6300 
 24 O      -10.2580    -4.2250    -0.5740 O.2   1 <1>  -0.5700 
 25 C       -9.4670    -6.4420     0.0040 C.2   1 <1>   0.6300 
 26 O      -10.5730    -6.9620     0.0590 O.2   1 <1>  -0.5700 
 27 N       -8.3150    -7.1580     0.2460 N.am  1 <1>  -0.5470 
 28 H       -8.4410    -8.1360     0.4710 H     1 <1>   0.3700 
 29 C        0.3600    -4.8730    -0.4970 C.ar  1 <1>  -0.1500 
 30 H        0.4320    -5.8730    -0.9210 H     1 <1>   0.1500 
 31 C        1.4520    -4.0070    -0.5720 C.ar  1 <1>  -0.1500 
 32 H        2.3700    -4.3330    -1.0550 H     1 <1>   0.1500 
@<TRIPOS>BOND
  1   1   2  1   
  2   2   3  ar  
  3   2  31  ar  
  4   3   4  1   
  5   3   5  ar  
  6   5   6  1   
  7   5   7  ar  
  8   7   8  1   
  9   7  29  ar  
 10   8   9  2   
 11   8  10  am  
 12  10  11  1   
 13  10  12  1   
 14  12  13  ar  
 15  12  19  ar  
 16  13  14  1   
 17  13  15  ar  
 18  15  16  1   
 19  15  17  ar  
 20  17  18  ar  
 21  17  27  1   
 22  18  19  ar  
 23  18  21  1   
 24  19  20  1   
 25  21  22  1   
 26  21  23  am  
 27  23  24  2   
 28  23  25  1   
 29  25  26  2   
 30  25  27  am  
 31  27  28  1   
 32  29  30  1   
 33  29  31  ar  
 34  31  32  1   
@<TRIPOS>SUBSTRUCTURE
  1 ****  12 GROUP 4 **** **** 0

# MOE 2022.02 (io_trps.svl 2020.11)

