@<TRIPOS>MOLECULE
ACT001
7 6 1 0 0 
SMALL
USER_CHARGES


@<TRIPOS>ATOM
  1 H        0.2560     1.0720    -0.5080 H     1 <1>   0.0600 
  2 C        0.2590     0.0340    -0.1340 C.2   1 <1>   0.4490 
  3 O       -0.7870    -0.5310     0.1670 O.2   1 <1>  -0.5700 
  4 C        1.6060    -0.6110    -0.0270 C.3   1 <1>   0.0610 
  5 H        1.5040    -1.6310     0.3510 H     1 <1>   0.0000 
  6 H        2.0710    -0.6340    -1.0150 H     1 <1>   0.0000 
  7 H        2.2270    -0.0300     0.6590 H     1 <1>   0.0000 
@<TRIPOS>BOND
  1   1   2  1   
  2   2   3  2   
  3   2   4  1   
  4   4   5  1   
  5   4   6  1   
  6   4   7  1   
@<TRIPOS>SUBSTRUCTURE
  1 ****   2 GROUP 4 **** **** 0

# MOE 2022.02 (io_trps.svl 2020.11)

@<TRIPOS>MOLECULE
ACT002
12 12 1 0 0 
SMALL
USER_CHARGES


@<TRIPOS>ATOM
  1 H       -2.8990     2.5400     0.0000 H     1 <1>   0.1500 
  2 C       -1.9580     1.9970     0.0000 C.ar  1 <1>  -0.1500 
  3 C       -1.9580     0.6020     0.0000 C.ar  1 <1>  -0.1500 
  4 H       -2.8990     0.0580    -0.0010 H     1 <1>   0.1500 
  5 C       -0.7500    -0.0960     0.0000 C.ar  1 <1>  -0.1500 
  6 H       -0.7500    -1.1830     0.0000 H     1 <1>   0.1500 
  7 C        0.4580     0.6020     0.0000 C.ar  1 <1>  -0.1500 
  8 H        1.3990     0.0580     0.0000 H     1 <1>   0.1500 
  9 C        0.4580     1.9960     0.0000 C.ar  1 <1>  -0.1500 
 10 H        1.3990     2.5400     0.0000 H     1 <1>   0.1500 
 11 C       -0.7500     2.6940     0.0000 C.ar  1 <1>  -0.1500 
 12 H       -0.7500     3.7810     0.0000 H     1 <1>   0.1500 
@<TRIPOS>BOND
  1   1   2  1   
  2   2   3  ar  
  3   2  11  ar  
  4   3   4  1   
  5   3   5  ar  
  6   5   6  1   
  7   5   7  ar  
  8   7   8  1   
  9   7   9  ar  
 10   9  10  1   
 11   9  11  ar  
 12  11  12  1   
@<TRIPOS>SUBSTRUCTURE
  1 ****   9 GROUP 4 **** **** 0

# MOE 2022.02 (io_trps.svl 2020.11)

@<TRIPOS>MOLECULE
ACT003
11 10 1 0 0 
SMALL
NO_CHARGES


@<TRIPOS>ATOM
  1 H       -0.1640    -0.5410    -0.5150 H     1 <1>   0.0000 
  2 C        0.0370     0.2390     0.2260 C.3   1 <1>   0.0000 
  3 H       -0.8480     0.8810     0.2920 H     1 <1>   0.0000 
  4 H        0.1810    -0.2410     1.1990 H     1 <1>   0.0000 
  5 C        1.2550     1.0590    -0.1630 C.3   1 <1>   0.0000 
  6 H        1.4160     1.8470     0.5810 H     1 <1>   0.0000 
  7 H        1.0710     1.5510    -1.1240 H     1 <1>   0.0000 
  8 C        2.5020     0.1980    -0.2650 C.3   1 <1>   0.0000 
  9 H        2.3780    -0.5830    -1.0220 H     1 <1>   0.0000 
 10 H        2.7250    -0.2840     0.6920 H     1 <1>   0.0000 
 11 H        3.3640     0.8100    -0.5470 H     1 <1>   0.0000 
@<TRIPOS>BOND
  1   1   2  1   
  2   2   3  1   
  3   2   4  1   
  4   2   5  1   
  5   5   6  1   
  6   5   7  1   
  7   5   8  1   
  8   8   9  1   
  9   8  10  1   
 10   8  11  1   
@<TRIPOS>SUBSTRUCTURE
  1 ****   5 GROUP 4 **** **** 0

# MOE 2022.02 (io_trps.svl 2020.11)

@<TRIPOS>MOLECULE
ACT004
9 9 1 0 0 
SMALL
USER_CHARGES


@<TRIPOS>ATOM
  1 H        1.7230     1.8640    -0.0150 H     1 <1>   0.1500 
  2 C        0.6630     1.6540    -0.0090 C.2   1 <1>  -0.0100 
  3 O        0.3250     0.3380    -0.0170 O.3   1 <1>  -0.2800 
  4 C       -1.0320     0.2810    -0.0080 C.2   1 <1>  -0.0100 
  5 H       -1.4570    -0.7130    -0.0130 H     1 <1>   0.1500 
  6 C       -1.5660     1.5480     0.0060 C.2   1 <1>  -0.1500 
  7 H       -2.6180     1.7960     0.0150 H     1 <1>   0.1500 
  8 C       -0.4660     2.4390     0.0050 C.2   1 <1>  -0.1500 
  9 H       -0.4910     3.5200     0.0130 H     1 <1>   0.1500 
@<TRIPOS>BOND
  1   1   2  1   
  2   2   3  1   
  3   2   8  2   
  4   3   4  1   
  5   4   5  1   
  6   4   6  2   
  7   6   7  1   
  8   6   8  1   
  9   8   9  1   
@<TRIPOS>SUBSTRUCTURE
  1 ****   4 GROUP 4 **** **** 0

# MOE 2022.02 (io_trps.svl 2020.11)

@<TRIPOS>MOLECULE
ACT005
25 26 1 0 0 
SMALL
USER_CHARGES


@<TRIPOS>ATOM
  1 H        1.3570     1.2370     0.2410 H     1 <1>   0.1500 
  2 C        0.4560     1.8390     0.1730 C.ar  1 <1>   0.1600 
  3 N       -0.7020     1.1420     0.1870 N.ar  1 <1>  -0.6200 
  4 C       -1.8550     1.8290     0.1060 C.ar  1 <1>   0.3100 
  5 C       -3.0580     1.1370     0.1180 C.ar  1 <1>  -0.1500 
  6 H       -2.9990     0.0560     0.1940 H     1 <1>   0.1500 
  7 C       -4.2900     1.7970     0.0360 C.ar  1 <1>   0.0820 
  8 O       -5.5100     1.1660     0.0440 O.3   1 <1>  -0.3630 
  9 C       -5.5180    -0.2510     0.1540 C.3   1 <1>   0.2800 
 10 H       -6.5620    -0.5800     0.1480 H     1 <1>   0.0000 
 11 H       -5.0190    -0.7160    -0.7020 H     1 <1>   0.0000 
 12 H       -5.0730    -0.5760     1.1000 H     1 <1>   0.0000 
 13 C       -4.3210     3.2000    -0.0620 C.ar  1 <1>   0.0820 
 14 O       -5.5650     3.7750    -0.1380 O.3   1 <1>  -0.3630 
 15 C       -5.6360     5.1900    -0.2330 C.3   1 <1>   0.2800 
 16 H       -5.1540     5.5490    -1.1490 H     1 <1>   0.0000 
 17 H       -5.2070     5.6670     0.6540 H     1 <1>   0.0000 
 18 H       -6.6930     5.4690    -0.2830 H     1 <1>   0.0000 
 19 C       -3.1190     3.9100    -0.0750 C.ar  1 <1>  -0.1500 
 20 H       -3.1090     4.9920    -0.1500 H     1 <1>   0.1500 
 21 C       -1.8890     3.2340     0.0080 C.ar  1 <1>   0.0000 
 22 C       -0.6680     3.9220    -0.0030 C.ar  1 <1>  -0.1500 
 23 H       -0.6400     5.0060    -0.0760 H     1 <1>   0.1500 
 24 C        0.5250     3.2150     0.0810 C.ar  1 <1>  -0.1500 
 25 H        1.4820     3.7250     0.0740 H     1 <1>   0.1500 
@<TRIPOS>BOND
  1   1   2  1   
  2   2   3  ar  
  3   2  24  ar  
  4   3   4  ar  
  5   4   5  ar  
  6   4  21  ar  
  7   5   6  1   
  8   5   7  ar  
  9   7   8  1   
 10   7  13  ar  
 11   8   9  1   
 12   9  10  1   
 13   9  11  1   
 14   9  12  1   
 15  13  14  1   
 16  13  19  ar  
 17  14  15  1   
 18  15  16  1   
 19  15  17  1   
 20  15  18  1   
 21  19  20  1   
 22  19  21  ar  
 23  21  22  ar  
 24  22  23  1   
 25  22  24  ar  
 26  24  25  1   
@<TRIPOS>SUBSTRUCTURE
  1 ****  21 GROUP 4 **** **** 0

# MOE 2022.02 (io_trps.svl 2020.11)

@<TRIPOS>MOLECULE
ACT006
15 15 1 0 0 
SMALL
USER_CHARGES


@<TRIPOS>ATOM
  1 H       -3.7350     2.5280    -0.6170 H     1 <1>   0.1500 
  2 C       -2.9380     1.8700    -0.2980 C.2   1 <1>  -0.0100 
  3 O       -1.7010     2.1800    -0.7630 O.3   1 <1>  -0.2800 
  4 C       -0.8430     1.2500    -0.2580 C.2   1 <1>  -0.0400 
  5 C        0.5840     1.3920    -0.6380 C.3   1 <1>   0.1800 
  6 H        0.6580     1.7400    -1.6750 H     1 <1>   0.0000 
  7 H        1.0760     0.4130    -0.5960 H     1 <1>   0.0000 
  8 C        1.3120     2.3620     0.2770 C.3   1 <1>   0.0000 
  9 H        1.2830     2.0220     1.3180 H     1 <1>   0.0000 
 10 H        2.3610     2.4520    -0.0220 H     1 <1>   0.0000 
 11 H        0.8600     3.3590     0.2380 H     1 <1>   0.0000 
 12 C       -1.5300     0.3480     0.5260 C.2   1 <1>  -0.1500 
 13 H       -1.1040    -0.4960     1.0510 H     1 <1>   0.1500 
 14 C       -2.8870     0.7510     0.4990 C.2   1 <1>  -0.1500 
 15 H       -3.7250     0.2850     0.9980 H     1 <1>   0.1500 
@<TRIPOS>BOND
  1   1   2  1   
  2   2   3  1   
  3   2  14  2   
  4   3   4  1   
  5   4   5  1   
  6   4  12  2   
  7   5   6  1   
  8   5   7  1   
  9   5   8  1   
 10   8   9  1   
 11   8  10  1   
 12   8  11  1   
 13  12  13  1   
 14  12  14  1   
 15  14  15  1   
@<TRIPOS>SUBSTRUCTURE
  1 ****   4 GROUP 4 **** **** 0

# MOE 2022.02 (io_trps.svl 2020.11)

@<TRIPOS>MOLECULE
ACT007
15 15 1 0 0 
SMALL
USER_CHARGES


@<TRIPOS>ATOM
  1 H        5.7410     0.5670    -0.0120 H     1 <1>   0.5000 
  2 O        4.7790     0.3810    -0.0100 O.3   1 <1>  -0.6500 
  3 C        4.2160     1.6030    -0.0080 C.2   1 <1>   0.6340 
  4 O        4.8970     2.6110    -0.0080 O.2   1 <1>  -0.5700 
  5 C        2.7340     1.5540    -0.0050 C.ar  1 <1>   0.0860 
  6 C        2.0310     2.7650     0.0040 C.ar  1 <1>  -0.1500 
  7 H        2.5680     3.7120     0.0090 H     1 <1>   0.1500 
  8 C        0.6350     2.7660     0.0060 C.ar  1 <1>  -0.1500 
  9 H        0.0920     3.7090     0.0120 H     1 <1>   0.1500 
 10 C       -0.0630     1.5590    -0.0010 C.ar  1 <1>  -0.1500 
 11 H       -1.1500     1.5600     0.0000 H     1 <1>   0.1500 
 12 C        0.6320     0.3490    -0.0100 C.ar  1 <1>  -0.1500 
 13 H        0.0860    -0.5910    -0.0150 H     1 <1>   0.1500 
 14 C        2.0290     0.3440    -0.0120 C.ar  1 <1>  -0.1500 
 15 H        2.5560    -0.6070    -0.0180 H     1 <1>   0.1500 
@<TRIPOS>BOND
  1   1   2  1   
  2   2   3  1   
  3   3   4  2   
  4   3   5  1   
  5   5   6  ar  
  6   5  14  ar  
  7   6   7  1   
  8   6   8  ar  
  9   8   9  1   
 10   8  10  ar  
 11  10  11  1   
 12  10  12  ar  
 13  12  13  1   
 14  12  14  ar  
 15  14  15  1   
@<TRIPOS>SUBSTRUCTURE
  1 ****   5 GROUP 4 **** **** 0

# MOE 2022.02 (io_trps.svl 2020.11)

@<TRIPOS>MOLECULE
ACT008
6 5 1 0 0 
SMALL
USER_CHARGES


@<TRIPOS>ATOM
  1 H       -0.2450    -0.9910     0.2290 H     1 <1>   0.4000 
  2 O        0.0290    -0.0580     0.2500 O.3   1 <1>  -0.6800 
  3 C        1.3790    -0.0110    -0.1760 C.3   1 <1>   0.2800 
  4 H        1.4550    -0.4060    -1.1920 H     1 <1>   0.0000 
  5 H        1.9970    -0.6030     0.5030 H     1 <1>   0.0000 
  6 H        1.7190     1.0270    -0.1640 H     1 <1>   0.0000 
@<TRIPOS>BOND
  1   1   2  1   
  2   2   3  1   
  3   3   4  1   
  4   3   5  1   
  5   3   6  1   
@<TRIPOS>SUBSTRUCTURE
  1 ****   2 GROUP 4 **** **** 0

# MOE 2022.02 (io_trps.svl 2020.11)

@<TRIPOS>MOLECULE
ACT009
12 12 1 0 0 
SMALL
USER_CHARGES


@<TRIPOS>ATOM
  1 H        4.7380    -1.2900    -0.0020 H     1 <1>   0.0600 
  2 C        4.2360    -0.3080    -0.0020 C.2   1 <1>   0.4240 
  3 O        4.8730     0.7370    -0.0020 O.2   1 <1>  -0.5700 
  4 C        2.7740    -0.3090    -0.0020 C.ar  1 <1>   0.0860 
  5 C        2.0550    -1.4830    -0.0020 C.ar  1 <1>   0.1600 
  6 H        2.5380    -2.4560    -0.0020 H     1 <1>   0.1500 
  7 N        0.7060    -1.5230    -0.0020 N.ar  1 <1>  -0.6200 
  8 C        0.0850    -0.3300    -0.0010 C.ar  1 <1>   0.4700 
  9 H       -1.0000    -0.3380    -0.0010 H     1 <1>   0.1500 
 10 N        0.6870     0.8720    -0.0010 N.ar  1 <1>  -0.6200 
 11 C        2.0380     0.8540    -0.0020 C.ar  1 <1>   0.1600 
 12 H        2.5160     1.8310    -0.0020 H     1 <1>   0.1500 
@<TRIPOS>BOND
  1   1   2  1   
  2   2   3  2   
  3   2   4  1   
  4   4   5  ar  
  5   4  11  ar  
  6   5   6  1   
  7   5   7  ar  
  8   7   8  ar  
  9   8   9  1   
 10   8  10  ar  
 11  10  11  ar  
 12  11  12  1   
@<TRIPOS>SUBSTRUCTURE
  1 ****   4 GROUP 4 **** **** 0

# MOE 2022.02 (io_trps.svl 2020.11)

@<TRIPOS>MOLECULE
ACT010
11 10 1 0 0 
SMALL
USER_CHARGES


@<TRIPOS>ATOM
  1 H        1.6530    -2.0010    -0.5470 H     1 <1>   0.0600 
  2 C        1.7720    -0.9130    -0.4160 C.2   1 <1>   0.4960 
  3 O        2.8460    -0.3600    -0.6210 O.2   1 <1>  -0.5700 
  4 C        0.5410    -0.1980     0.0230 C.2   1 <1>  -0.1240 
  5 C        0.5880     1.1300     0.2040 C.2   1 <1>  -0.3000 
  6 H        1.5040     1.6940     0.0380 H     1 <1>   0.1500 
  7 H       -0.2840     1.6920     0.5230 H     1 <1>   0.1500 
  8 C       -0.6810    -1.0310     0.2330 C.3   1 <1>   0.1380 
  9 H       -1.5360    -0.4260     0.5510 H     1 <1>   0.0000 
 10 H       -0.9590    -1.5420    -0.6940 H     1 <1>   0.0000 
 11 H       -0.5000    -1.7860     1.0060 H     1 <1>   0.0000 
@<TRIPOS>BOND
  1   1   2  1   
  2   2   3  2   
  3   2   4  1   
  4   4   5  2   
  5   4   8  1   
  6   5   6  1   
  7   5   7  1   
  8   8   9  1   
  9   8  10  1   
 10   8  11  1   
@<TRIPOS>SUBSTRUCTURE
  1 ****   4 GROUP 4 **** **** 0

# MOE 2022.02 (io_trps.svl 2020.11)

@<TRIPOS>MOLECULE
ACT011
16 16 1 0 0 
SMALL
USER_CHARGES


@<TRIPOS>ATOM
  1 H        4.6740     0.6110     0.0150 H     1 <1>   0.0600 
  2 C        4.1130    -0.3340     0.0060 C.2   1 <1>   0.4240 
  3 O        4.7120    -1.4040    -0.0050 O.2   1 <1>  -0.5700 
  4 C        2.6350    -0.2510     0.0100 C.ar  1 <1>   0.0860 
  5 C        1.9190    -1.4600     0.0010 C.ar  1 <1>  -0.1500 
  6 H        2.4490    -2.4110    -0.0090 H     1 <1>   0.1500 
  7 C        0.5260    -1.4550     0.0040 C.ar  1 <1>  -0.1500 
  8 H       -0.0220    -2.3930    -0.0020 H     1 <1>   0.1500 
  9 C       -0.1550    -0.2440     0.0170 C.ar  1 <1>  -0.1500 
 10 H       -1.2420    -0.2310     0.0200 H     1 <1>   0.1500 
 11 C        0.5570     0.9590     0.0260 C.ar  1 <1>  -0.1500 
 12 H       -0.0050     1.8910     0.0360 H     1 <1>   0.1500 
 13 C        1.9610     0.9840     0.0230 C.ar  1 <1>   0.1000 
 14 N        2.5890     2.2220     0.0320 N.pl3 1 <1>  -0.9000 
 15 H        3.5900     2.3400     0.0260 H     1 <1>   0.4000 
 16 H        2.0290     3.0660     0.0450 H     1 <1>   0.4000 
@<TRIPOS>BOND
  1   1   2  1   
  2   2   3  2   
  3   2   4  1   
  4   4   5  ar  
  5   4  13  ar  
  6   5   6  1   
  7   5   7  ar  
  8   7   8  1   
  9   7   9  ar  
 10   9  10  1   
 11   9  11  ar  
 12  11  12  1   
 13  11  13  ar  
 14  13  14  1   
 15  14  15  1   
 16  14  16  1   
@<TRIPOS>SUBSTRUCTURE
  1 ****   4 GROUP 4 **** **** 0

# MOE 2022.02 (io_trps.svl 2020.11)

@<TRIPOS>MOLECULE
ACT012
9 8 1 0 0 
SMALL
USER_CHARGES


@<TRIPOS>ATOM
  1 H       -0.8100     0.5940    -0.2450 H     1 <1>   0.4000 
  2 O        0.0040     0.0790    -0.1110 O.3   1 <1>  -0.6800 
  3 C        1.0610     1.0090     0.0680 C.3   1 <1>   0.2800 
  4 H        0.8320     1.6420     0.9310 H     1 <1>   0.0000 
  5 H        1.1340     1.6360    -0.8260 H     1 <1>   0.0000 
  6 C        2.3530     0.2530     0.2920 C.3   1 <1>   0.0000 
  7 H        2.2730    -0.3920     1.1740 H     1 <1>   0.0000 
  8 H        2.5710    -0.4000    -0.5590 H     1 <1>   0.0000 
  9 H        3.1900     0.9420     0.4330 H     1 <1>   0.0000 
@<TRIPOS>BOND
  1   1   2  1   
  2   2   3  1   
  3   3   4  1   
  4   3   5  1   
  5   3   6  1   
  6   6   7  1   
  7   6   8  1   
  8   6   9  1   
@<TRIPOS>SUBSTRUCTURE
  1 ****   3 GROUP 4 **** **** 0

# MOE 2022.02 (io_trps.svl 2020.11)

@<TRIPOS>MOLECULE
ACT013
14 14 1 0 0 
SMALL
USER_CHARGES


@<TRIPOS>ATOM
  1 H       -3.8060     1.6680     0.0090 H     1 <1>   0.1500 
  2 C       -2.7200     1.6670     0.0050 C.ar  1 <1>  -0.1500 
  3 C       -2.0210     0.4630     0.0020 C.ar  1 <1>  -0.1500 
  4 H       -2.5610    -0.4800     0.0050 H     1 <1>   0.1500 
  5 C       -0.6230     0.4650    -0.0040 C.ar  1 <1>  -0.1500 
  6 H       -0.0940    -0.4840    -0.0060 H     1 <1>   0.1500 
  7 C        0.0890     1.6660    -0.0070 C.ar  1 <1>   0.1000 
  8 N        1.4710     1.6670    -0.0130 N.pl3 1 <1>  -0.9000 
  9 H        1.9860     0.7970    -0.0160 H     1 <1>   0.4000 
 10 H        1.9850     2.5360    -0.0140 H     1 <1>   0.4000 
 11 C       -0.6230     2.8680    -0.0040 C.ar  1 <1>  -0.1500 
 12 H       -0.0930     3.8160    -0.0060 H     1 <1>   0.1500 
 13 C       -2.0200     2.8720     0.0020 C.ar  1 <1>  -0.1500 
 14 H       -2.5600     3.8150     0.0040 H     1 <1>   0.1500 
@<TRIPOS>BOND
  1   1   2  1   
  2   2   3  ar  
  3   2  13  ar  
  4   3   4  1   
  5   3   5  ar  
  6   5   6  1   
  7   5   7  ar  
  8   7   8  1   
  9   7  11  ar  
 10   8   9  1   
 11   8  10  1   
 12  11  12  1   
 13  11  13  ar  
 14  13  14  1   
@<TRIPOS>SUBSTRUCTURE
  1 ****   7 GROUP 4 **** **** 0

# MOE 2022.02 (io_trps.svl 2020.11)

@<TRIPOS>MOLECULE
ACT014
17 17 1 0 0 
SMALL
USER_CHARGES


@<TRIPOS>ATOM
  1 H       -1.2160     1.2750    -0.0610 H     1 <1>   0.1500 
  2 C       -1.2120     0.1860    -0.0320 C.ar  1 <1>  -0.1500 
  3 C       -2.4200    -0.5160    -0.0290 C.ar  1 <1>  -0.1500 
  4 H       -3.3550     0.0420    -0.0510 H     1 <1>   0.1500 
  5 C       -2.4080    -1.9180    -0.0070 C.ar  1 <1>   0.1330 
  6 N       -3.6790    -2.6530    -0.0060 N.pl3 1 <1>   0.9070 
  7 O       -3.6340    -3.8780     0.1730 O.2   1 <1>  -0.5200 
  8 O       -4.7200    -2.0030    -0.1770 O.2   1 <1>  -0.5200 
  9 C       -1.1980    -2.6250     0.0190 C.ar  1 <1>  -0.1500 
 10 H       -1.1850    -3.7140     0.0220 H     1 <1>   0.1500 
 11 C       -0.0010    -1.9040     0.0250 C.ar  1 <1>  -0.0090 
 12 S        1.5570    -2.7790     0.0310 S.o2  1 <1>   1.2620 
 13 H        1.9490    -2.9320     1.2880 H     1 <1>   0.0470 
 14 O        1.2740    -4.0910    -0.5240 O.2   1 <1>  -0.6500 
 15 O        2.5010    -1.9070    -0.6440 O.2   1 <1>  -0.6500 
 16 C        0.0000    -0.5050    -0.0080 C.ar  1 <1>  -0.1500 
 17 H        0.9350     0.0530    -0.0290 H     1 <1>   0.1500 
@<TRIPOS>BOND
  1   1   2  1   
  2   2   3  ar  
  3   2  16  ar  
  4   3   4  1   
  5   3   5  ar  
  6   5   6  1   
  7   5   9  ar  
  8   6   7  2   
  9   6   8  2   
 10   9  10  1   
 11   9  11  ar  
 12  11  12  1   
 13  11  16  ar  
 14  12  13  1   
 15  12  14  2   
 16  12  15  2   
 17  16  17  1   
@<TRIPOS>SUBSTRUCTURE
  1 ****   9 GROUP 4 **** **** 0

# MOE 2022.02 (io_trps.svl 2020.11)

@<TRIPOS>MOLECULE
ACT015
8 7 1 0 0 
SMALL
USER_CHARGES


@<TRIPOS>ATOM
  1 H        2.9910     1.0150    -0.8400 H     1 <1>   0.5000 
  2 O        2.6940     0.0880    -0.7670 O.3   1 <1>  -0.6500 
  3 C        1.4800    -0.0480    -0.1870 C.2   1 <1>   0.6590 
  4 O        0.9480    -1.1330    -0.0120 O.2   1 <1>  -0.5700 
  5 C        0.8750     1.2640     0.2090 C.3   1 <1>   0.0610 
  6 H        1.5210     1.7670     0.9340 H     1 <1>   0.0000 
  7 H        0.7300     1.8880    -0.6770 H     1 <1>   0.0000 
  8 H       -0.0990     1.0880     0.6750 H     1 <1>   0.0000 
@<TRIPOS>BOND
  1   1   2  1   
  2   2   3  1   
  3   3   4  2   
  4   3   5  1   
  5   5   6  1   
  6   5   7  1   
  7   5   8  1   
@<TRIPOS>SUBSTRUCTURE
  1 ****   3 GROUP 4 **** **** 0

# MOE 2022.02 (io_trps.svl 2020.11)

@<TRIPOS>MOLECULE
ACT016
41 44 1 0 0 
SMALL
USER_CHARGES


@<TRIPOS>ATOM
  1 H       -9.0350    -2.7600     0.1530 H     1 <1>   0.1500 
  2 C       -8.7360    -1.7310    -0.0280 C.ar  1 <1>   0.1600 
  3 N       -7.5800    -1.3580     0.5620 N.ar  1 <1>  -0.6200 
  4 C       -7.1530    -0.0950     0.3770 C.ar  1 <1>   0.3100 
  5 C       -5.9700     0.3170     0.9650 C.ar  1 <1>  -0.1500 
  6 H       -5.4080    -0.3850     1.5750 H     1 <1>   0.1500 
  7 C       -5.4870     1.6150     0.7860 C.ar  1 <1>   0.0820 
  8 O       -4.3150     1.9420     1.4280 O.3   1 <1>  -0.3400 
  9 C       -3.1620     2.0450     0.5600 C.3   1 <1>   0.2580 
 10 H       -3.3300     2.7350    -0.2780 H     1 <1>   0.0000 
 11 C       -2.5050     0.7050     0.1050 C.3   1 <1>   0.0000 
 12 H       -2.7470    -0.1480     0.7500 H     1 <1>   0.0000 
 13 H       -2.6950     0.4250    -0.9350 H     1 <1>   0.0000 
 14 C       -1.1760     1.3550     0.4020 C.3   1 <1>   0.0000 
 15 C       -0.0240     0.5220     0.8900 C.3   1 <1>   0.2100 
 16 H        0.5680     0.9950     1.6830 H     1 <1>   0.0000 
 17 H       -0.2650    -0.4990     1.2010 H     1 <1>   0.0000 
 18 N        0.5420     0.6200    -0.4860 N.3   1 <1>  -0.6890 
 19 C        1.9490     1.0040    -0.4350 C.3   1 <1>   0.2700 
 20 H        2.5500     0.1650    -0.0690 H     1 <1>   0.0000 
 21 H        2.3060     1.2450    -1.4430 H     1 <1>   0.0000 
 22 H        2.1460     1.8690     0.2100 H     1 <1>   0.0000 
 23 C       -0.3170     1.8090    -0.7530 C.3   1 <1>   0.2100 
 24 H        0.1640     2.7840    -0.6040 H     1 <1>   0.0000 
 25 H       -0.7890     1.8050    -1.7400 H     1 <1>   0.0000 
 26 C       -1.8240     2.3780     1.2910 C.3   1 <1>   0.0000 
 27 H       -1.4800     3.4100     1.1800 H     1 <1>   0.0000 
 28 H       -1.8270     2.1200     2.3560 H     1 <1>   0.0000 
 29 C       -6.2010     2.5580     0.0370 C.ar  1 <1>   0.0820 
 30 O       -5.6640     3.8140    -0.0410 O.3   1 <1>  -0.3630 
 31 C       -6.4360     4.8170    -0.6880 C.3   1 <1>   0.2800 
 32 H       -5.8910     5.7630    -0.6040 H     1 <1>   0.0000 
 33 H       -7.4070     4.9480    -0.2000 H     1 <1>   0.0000 
 34 H       -6.5540     4.5950    -1.7530 H     1 <1>   0.0000 
 35 C       -7.3930     2.1540    -0.5660 C.ar  1 <1>  -0.1500 
 36 H       -7.9750     2.8440    -1.1690 H     1 <1>   0.1500 
 37 C       -7.8700     0.8370    -0.4030 C.ar  1 <1>   0.0000 
 38 C       -9.0650     0.4110    -0.9990 C.ar  1 <1>  -0.1500 
 39 H       -9.6560     1.0890    -1.6090 H     1 <1>   0.1500 
 40 C       -9.5070    -0.8930    -0.8100 C.ar  1 <1>  -0.1500 
 41 H      -10.4290    -1.2450    -1.2600 H     1 <1>   0.1500 
@<TRIPOS>BOND
  1   1   2  1   
  2   2   3  ar  
  3   2  40  ar  
  4   3   4  ar  
  5   4   5  ar  
  6   4  37  ar  
  7   5   6  1   
  8   5   7  ar  
  9   7   8  1   
 10   7  29  ar  
 11   8   9  1   
 12   9  10  1   
 13   9  11  1   
 14   9  26  1   
 15  11  12  1   
 16  11  13  1   
 17  11  14  1   
 18  14  15  1   
 19  14  23  1   
 20  14  26  1   
 21  15  16  1   
 22  15  17  1   
 23  15  18  1   
 24  18  19  1   
 25  18  23  1   
 26  19  20  1   
 27  19  21  1   
 28  19  22  1   
 29  23  24  1   
 30  23  25  1   
 31  26  27  1   
 32  26  28  1   
 33  29  30  1   
 34  29  35  ar  
 35  30  31  1   
 36  31  32  1   
 37  31  33  1   
 38  31  34  1   
 39  35  36  1   
 40  35  37  ar  
 41  37  38  ar  
 42  38  39  1   
 43  38  40  ar  
 44  40  41  1   
@<TRIPOS>SUBSTRUCTURE
  1 ****   7 GROUP 4 **** **** 0

# MOE 2022.02 (io_trps.svl 2020.11)

@<TRIPOS>MOLECULE
ACT017
16 16 1 0 0 
SMALL
USER_CHARGES


@<TRIPOS>ATOM
  1 H       -0.2020    -0.9870     0.0010 H     1 <1>   0.4500 
  2 O        0.5620    -1.5870     0.0000 O.3   1 <1>  -0.5320 
  3 C        1.7120    -0.8550     0.0000 C.ar  1 <1>   0.0820 
  4 C        1.6880     0.5380     0.0000 C.ar  1 <1>  -0.1500 
  5 H        0.7460     1.0750     0.0010 H     1 <1>   0.1500 
  6 C        2.8980     1.2300     0.0000 C.ar  1 <1>   0.0820 
  7 O        2.9360     2.5940     0.0000 O.3   1 <1>  -0.5320 
  8 H        2.0300     2.9430     0.0010 H     1 <1>   0.4500 
  9 C        4.1130     0.5530     0.0000 C.ar  1 <1>  -0.1500 
 10 H        5.0470     1.1100     0.0000 H     1 <1>   0.1500 
 11 C        4.1160    -0.8440     0.0000 C.ar  1 <1>   0.0860 
 12 C        5.3910    -1.5870    -0.0010 C.2   1 <1>   0.4240 
 13 H        5.3190    -2.6870    -0.0010 H     1 <1>   0.0600 
 14 O        6.4780    -1.0220    -0.0010 O.2   1 <1>  -0.5700 
 15 C        2.9150    -1.5550     0.0000 C.ar  1 <1>  -0.1500 
 16 H        2.9000    -2.6410     0.0000 H     1 <1>   0.1500 
@<TRIPOS>BOND
  1   1   2  1   
  2   2   3  1   
  3   3   4  ar  
  4   3  15  ar  
  5   4   5  1   
  6   4   6  ar  
  7   6   7  1   
  8   6   9  ar  
  9   7   8  1   
 10   9  10  1   
 11   9  11  ar  
 12  11  12  1   
 13  11  15  ar  
 14  12  13  1   
 15  12  14  2   
 16  15  16  1   
@<TRIPOS>SUBSTRUCTURE
  1 ****  11 GROUP 4 **** **** 0

# MOE 2022.02 (io_trps.svl 2020.11)

@<TRIPOS>MOLECULE
ACT018
30 31 1 0 0 
SMALL
USER_CHARGES


@<TRIPOS>ATOM
  1 H        9.7010     1.0440     1.4730 H     1 <1>   0.0600 
  2 C        9.2130     0.0600     1.3730 C.2   1 <1>   0.4240 
  3 O        9.8040    -0.9790     1.6390 O.2   1 <1>  -0.5700 
  4 C        7.8280     0.0510     0.9070 C.ar  1 <1>   0.0860 
  5 C        7.1590     1.2060     0.6030 C.ar  1 <1>   0.1600 
  6 H        7.6210     2.1840     0.6930 H     1 <1>   0.1500 
  7 N        5.8810     1.2260     0.1680 N.ar  1 <1>  -0.6200 
  8 C        5.2360     0.0510     0.0280 C.ar  1 <1>   0.7200 
  9 N        3.9370     0.0510    -0.4150 N.pl3 1 <1>  -0.8380 
 10 C        3.2570     1.2890    -0.7590 C.3   1 <1>   0.3690 
 11 H        3.8400     2.1900    -0.5380 H     1 <1>   0.0000 
 12 H        3.0660     1.3020    -1.8400 H     1 <1>   0.0000 
 13 C        1.9310     1.3800    -0.0010 C.3   1 <1>   0.0000 
 14 H        1.3820     2.2680    -0.3340 H     1 <1>   0.0000 
 15 H        2.1380     1.5130     1.0690 H     1 <1>   0.0000 
 16 C        1.0760     0.1220    -0.2100 C.3   1 <1>   0.0000 
 17 H        0.8060     0.0560    -1.2720 H     1 <1>   0.0000 
 18 C       -0.2140     0.2020     0.6030 C.3   1 <1>   0.0000 
 19 H       -0.7990     1.0810     0.3160 H     1 <1>   0.0000 
 20 H       -0.0060     0.2680     1.6760 H     1 <1>   0.0000 
 21 H       -0.8340    -0.6850     0.4330 H     1 <1>   0.0000 
 22 C        1.8810    -1.1290     0.1680 C.3   1 <1>   0.0000 
 23 H        1.2950    -2.0310    -0.0430 H     1 <1>   0.0000 
 24 H        2.0870    -1.1250     1.2470 H     1 <1>   0.0000 
 25 C        3.2060    -1.1940    -0.5940 C.3   1 <1>   0.3690 
 26 H        3.0100    -1.3400    -1.6640 H     1 <1>   0.0000 
 27 H        3.7520    -2.0800    -0.2560 H     1 <1>   0.0000 
 28 N        5.8320    -1.1230     0.3100 N.ar  1 <1>  -0.6200 
 29 C        7.1120    -1.1050     0.7420 C.ar  1 <1>   0.1600 
 30 H        7.5430    -2.0800     0.9540 H     1 <1>   0.1500 
@<TRIPOS>BOND
  1   1   2  1   
  2   2   3  2   
  3   2   4  1   
  4   4   5  ar  
  5   4  29  ar  
  6   5   6  1   
  7   5   7  ar  
  8   7   8  ar  
  9   8   9  1   
 10   8  28  ar  
 11   9  10  1   
 12   9  25  1   
 13  10  11  1   
 14  10  12  1   
 15  10  13  1   
 16  13  14  1   
 17  13  15  1   
 18  13  16  1   
 19  16  17  1   
 20  16  18  1   
 21  16  22  1   
 22  18  19  1   
 23  18  20  1   
 24  18  21  1   
 25  22  23  1   
 26  22  24  1   
 27  22  25  1   
 28  25  26  1   
 29  25  27  1   
 30  28  29  ar  
 31  29  30  1   
@<TRIPOS>SUBSTRUCTURE
  1 ****   8 GROUP 4 **** **** 0

# MOE 2022.02 (io_trps.svl 2020.11)

@<TRIPOS>MOLECULE
ACT019
12 12 1 0 0 
SMALL
USER_CHARGES


@<TRIPOS>ATOM
  1 H        0.2440     3.3190     0.1340 H     1 <1>   0.1500 
  2 C       -0.0030     2.2650     0.1050 C.2   1 <1>   0.1390 
  3 N       -1.2800     1.8990     0.2250 N.2   1 <1>  -0.7070 
  4 N       -1.2330     0.5590     0.1500 N.pl3 1 <1>   0.3000 
  5 H       -2.1040     0.0430     0.2180 H     1 <1>   0.2700 
  6 C        0.0300     0.0700    -0.0140 C.2   1 <1>  -0.3020 
  7 H        0.2160    -0.9920    -0.0880 H     1 <1>   0.1500 
  8 C        0.8690     1.1630    -0.0500 C.2   1 <1>  -0.1810 
  9 C        2.3390     1.1890    -0.2080 C.3   1 <1>   0.1810 
 10 H        2.7140     0.2340    -0.5880 H     1 <1>   0.0000 
 11 H        2.8210     1.3880     0.7550 H     1 <1>   0.0000 
 12 H        2.6390     1.9720    -0.9110 H     1 <1>   0.0000 
@<TRIPOS>BOND
  1   1   2  1   
  2   2   3  2   
  3   2   8  1   
  4   3   4  1   
  5   4   5  1   
  6   4   6  1   
  7   6   7  1   
  8   6   8  2   
  9   8   9  1   
 10   9  10  1   
 11   9  11  1   
 12   9  12  1   
@<TRIPOS>SUBSTRUCTURE
  1 ****   8 GROUP 4 **** **** 0

# MOE 2022.02 (io_trps.svl 2020.11)

@<TRIPOS>MOLECULE
ACT020
14 14 1 0 0 
SMALL
USER_CHARGES


@<TRIPOS>ATOM
  1 H        3.6610    -0.7720     1.7580 H     1 <1>   0.0600 
  2 C        3.9460    -0.6110     0.7040 C.2   1 <1>   0.4490 
  3 O        4.7690     0.2520     0.4070 O.2   1 <1>  -0.5700 
  4 C        3.3350    -1.5520    -0.3000 C.3   1 <1>   0.2410 
  5 H        3.7410    -2.5530    -0.1230 H     1 <1>   0.0000 
  6 H        3.6280    -1.2410    -1.3080 H     1 <1>   0.0000 
  7 C        1.8460    -1.5180    -0.1560 C.2   1 <1>  -0.1400 
  8 S        1.0420    -2.6890     0.8020 S.3   1 <1>  -0.0800 
  9 C       -0.4880    -2.0040     0.4690 C.2   1 <1>  -0.1100 
 10 H       -1.3830    -2.4380     0.8940 H     1 <1>   0.1500 
 11 C       -0.3940    -0.9080    -0.3590 C.2   1 <1>  -0.1500 
 12 H       -1.2520    -0.3360    -0.6880 H     1 <1>   0.1500 
 13 C        0.9550    -0.6280    -0.7220 C.2   1 <1>  -0.1500 
 14 H        1.2540     0.1900    -1.3680 H     1 <1>   0.1500 
@<TRIPOS>BOND
  1   1   2  1   
  2   2   3  2   
  3   2   4  1   
  4   4   5  1   
  5   4   6  1   
  6   4   7  1   
  7   7   8  1   
  8   7  13  2   
  9   8   9  1   
 10   9  10  1   
 11   9  11  2   
 12  11  12  1   
 13  11  13  1   
 14  13  14  1   
@<TRIPOS>SUBSTRUCTURE
  1 ****   7 GROUP 4 **** **** 0

# MOE 2022.02 (io_trps.svl 2020.11)

@<TRIPOS>MOLECULE
ACT021
8 7 1 0 0 
SMALL
USER_CHARGES


@<TRIPOS>ATOM
  1 H       -0.1680    -0.8350     1.0480 H     1 <1>   0.4000 
  2 O       -0.0180    -0.7850     0.0870 O.3   1 <1>  -0.6800 
  3 C        1.2200    -0.1240    -0.1060 C.3   1 <1>   0.3410 
  4 H        1.3350     0.1120    -1.1670 H     1 <1>   0.0000 
  5 H        1.2300     0.8060     0.4690 H     1 <1>   0.0000 
  6 C        2.3690    -1.0110     0.3150 C.2   1 <1>   0.4490 
  7 H        2.4700    -1.9530    -0.2490 H     1 <1>   0.0600 
  8 O        3.1510    -0.7240     1.2160 O.2   1 <1>  -0.5700 
@<TRIPOS>BOND
  1   1   2  1   
  2   2   3  1   
  3   3   4  1   
  4   3   5  1   
  5   3   6  1   
  6   6   7  1   
  7   6   8  2   
@<TRIPOS>SUBSTRUCTURE
  1 ****   6 GROUP 4 **** **** 0

# MOE 2022.02 (io_trps.svl 2020.11)

@<TRIPOS>MOLECULE
ACT022
9 9 1 0 0 
SMALL
USER_CHARGES


@<TRIPOS>ATOM
  1 H        0.4070     0.6870     0.7940 H     1 <1>   0.1000 
  2 C        0.5020     0.0730    -0.0940 C.3   1 <1>  -0.2000 
  3 H        0.6300     0.6350    -1.0130 H     1 <1>   0.1000 
  4 C        1.2120    -1.2440     0.0310 C.3   1 <1>  -0.2000 
  5 H        1.8210    -1.5760    -0.8020 H     1 <1>   0.1000 
  6 H        1.5970    -1.5240     1.0050 H     1 <1>   0.1000 
  7 C       -0.2780    -1.2090    -0.1540 C.3   1 <1>  -0.2000 
  8 H       -0.6790    -1.5170    -1.1130 H     1 <1>   0.1000 
  9 H       -0.9030    -1.4640     0.6940 H     1 <1>   0.1000 
@<TRIPOS>BOND
  1   1   2  1   
  2   2   3  1   
  3   2   4  1   
  4   2   7  1   
  5   4   5  1   
  6   4   6  1   
  7   4   7  1   
  8   7   8  1   
  9   7   9  1   
@<TRIPOS>SUBSTRUCTURE
  1 ****   2 GROUP 4 **** **** 0

# MOE 2022.02 (io_trps.svl 2020.11)

@<TRIPOS>MOLECULE
ACT023
19 19 1 0 0 
SMALL
USER_CHARGES


@<TRIPOS>ATOM
  1 H        0.2710     3.3570     0.3610 H     1 <1>   0.1500 
  2 C       -0.0700     2.3360     0.2460 C.2   1 <1>  -0.1500 
  3 C       -1.4220     1.8980     0.1940 C.2   1 <1>  -0.1810 
  4 C       -2.6320     2.7560     0.2830 C.3   1 <1>   0.1810 
  5 H       -2.3620     3.8110     0.3940 H     1 <1>   0.0000 
  6 H       -3.2400     2.6550    -0.6210 H     1 <1>   0.0000 
  7 H       -3.2410     2.4700     1.1470 H     1 <1>   0.0000 
  8 C       -1.3890     0.5210     0.0430 C.2   1 <1>  -0.3320 
  9 C       -2.4940    -0.4660    -0.0710 C.3   1 <1>   0.1800 
 10 H       -3.2500    -0.2860     0.7000 H     1 <1>   0.0000 
 11 H       -2.9740    -0.3840    -1.0510 H     1 <1>   0.0000 
 12 H       -2.1310    -1.4920     0.0470 H     1 <1>   0.0000 
 13 N       -0.0720     0.1350    -0.0030 N.pl3 1 <1>   0.0330 
 14 H        0.2500    -0.8180    -0.1120 H     1 <1>   0.2700 
 15 C        0.7440     1.2300     0.1230 C.2   1 <1>  -0.3320 
 16 C        2.2210     1.1080     0.1090 C.3   1 <1>   0.1800 
 17 H        2.5600     0.4250     0.8940 H     1 <1>   0.0000 
 18 H        2.5660     0.7240    -0.8570 H     1 <1>   0.0000 
 19 H        2.6970     2.0800     0.2770 H     1 <1>   0.0000 
@<TRIPOS>BOND
  1   1   2  1   
  2   2   3  1   
  3   2  15  2   
  4   3   4  1   
  5   3   8  2   
  6   4   5  1   
  7   4   6  1   
  8   4   7  1   
  9   8   9  1   
 10   8  13  1   
 11   9  10  1   
 12   9  11  1   
 13   9  12  1   
 14  13  14  1   
 15  13  15  1   
 16  15  16  1   
 17  16  17  1   
 18  16  18  1   
 19  16  19  1   
@<TRIPOS>SUBSTRUCTURE
  1 ****   8 GROUP 4 **** **** 0

# MOE 2022.02 (io_trps.svl 2020.11)

@<TRIPOS>MOLECULE
ACT024
21 21 1 0 0 
SMALL
USER_CHARGES


@<TRIPOS>ATOM
  1 H        0.4900    -4.0360    -0.3930 H     1 <1>   0.1500 
  2 C       -0.1000    -3.1630    -0.1230 C.ar  1 <1>  -0.1500 
  3 C       -1.4880    -3.2210    -0.2670 C.ar  1 <1>  -0.1500 
  4 H       -1.9510    -4.1300    -0.6470 H     1 <1>   0.1500 
  5 C       -2.2570    -2.1080     0.0710 C.ar  1 <1>  -0.0090 
  6 S       -4.0300    -2.1580    -0.1090 S.o2  1 <1>   1.2620 
  7 H       -4.5640    -2.4170     1.0770 H     1 <1>   0.0470 
  8 O       -4.4230    -0.8180    -0.5100 O.2   1 <1>  -0.6500 
  9 O       -4.3160    -3.2790    -0.9880 O.2   1 <1>  -0.6500 
 10 C       -1.6550    -0.9420     0.5460 C.ar  1 <1>  -0.1500 
 11 H       -2.2520    -0.0740     0.8160 H     1 <1>   0.1500 
 12 C       -0.2640    -0.8930     0.6840 C.ar  1 <1>  -0.1500 
 13 H        0.1730    -0.0010     1.1230 H     1 <1>   0.1500 
 14 C        0.5250    -1.9920     0.3280 C.ar  1 <1>   0.1170 
 15 N        1.9250    -2.0220     0.4620 N.am  1 <1>  -0.5470 
 16 H        2.3490    -2.9430     0.5000 H     1 <1>   0.3700 
 17 C        2.8370    -1.0260     0.5620 C.2   1 <1>   0.5000 
 18 S        4.3780    -1.3520     1.0980 S.2   1 <1>  -0.3800 
 19 N        2.5200     0.2150     0.1490 N.am  1 <1>  -0.8000 
 20 H        3.1940     0.9600     0.2680 H     1 <1>   0.3700 
 21 H        1.6480     0.4340    -0.3080 H     1 <1>   0.3700 
@<TRIPOS>BOND
  1   1   2  1   
  2   2   3  ar  
  3   2  14  ar  
  4   3   4  1   
  5   3   5  ar  
  6   5   6  1   
  7   5  10  ar  
  8   6   7  1   
  9   6   8  2   
 10   6   9  2   
 11  10  11  1   
 12  10  12  ar  
 13  12  13  1   
 14  12  14  ar  
 15  14  15  1   
 16  15  16  1   
 17  15  17  am  
 18  17  18  2   
 19  17  19  am  
 20  19  20  1   
 21  19  21  1   
@<TRIPOS>SUBSTRUCTURE
  1 ****  12 GROUP 4 **** **** 0

# MOE 2022.02 (io_trps.svl 2020.11)

@<TRIPOS>MOLECULE
ACT025
15 15 1 0 0 
SMALL
USER_CHARGES


@<TRIPOS>ATOM
  1 H        5.9190    -1.3580     0.0360 H     1 <1>   0.0600 
  2 C        6.0640    -0.2650     0.0120 C.2   1 <1>   0.4960 
  3 O        7.1770     0.2450    -0.0030 O.2   1 <1>  -0.5700 
  4 C        4.8440     0.5640     0.0000 C.2   1 <1>  -0.1360 
  5 H        5.0010     1.6340    -0.0230 H     1 <1>   0.1500 
  6 C        3.6440    -0.0290     0.0160 C.2   1 <1>  -0.1050 
  7 H        3.5490    -1.1110     0.0380 H     1 <1>   0.1500 
  8 C        2.4270     0.7070     0.0060 C.2   1 <1>   0.0950 
  9 O        1.2060     0.0660     0.0140 O.3   1 <1>  -0.2800 
 10 C        0.2250     1.0000     0.0010 C.2   1 <1>  -0.0100 
 11 H       -0.7860     0.6170     0.0060 H     1 <1>   0.1500 
 12 C        0.7660     2.2590    -0.0140 C.2   1 <1>  -0.1500 
 13 H        0.2200     3.1910    -0.0260 H     1 <1>   0.1500 
 14 C        2.1700     2.0750    -0.0120 C.2   1 <1>  -0.1500 
 15 H        2.9140     2.8600    -0.0220 H     1 <1>   0.1500 
@<TRIPOS>BOND
  1   1   2  1   
  2   2   3  2   
  3   2   4  1   
  4   4   5  1   
  5   4   6  2   
  6   6   7  1   
  7   6   8  1   
  8   8   9  1   
  9   8  14  2   
 10   9  10  1   
 11  10  11  1   
 12  10  12  2   
 13  12  13  1   
 14  12  14  1   
 15  14  15  1   
@<TRIPOS>SUBSTRUCTURE
  1 ****   8 GROUP 4 **** **** 0

# MOE 2022.02 (io_trps.svl 2020.11)

@<TRIPOS>MOLECULE
ACT026
10 9 1 0 0 
SMALL
USER_CHARGES


@<TRIPOS>ATOM
  1 H        0.2510    -0.8060     1.5060 H     1 <1>   0.0600 
  2 C        0.1580    -0.3250     0.5180 C.2   1 <1>   0.4490 
  3 O       -0.8910    -0.3870    -0.1150 O.2   1 <1>  -0.5700 
  4 C        1.3620     0.4460     0.0470 C.3   1 <1>   0.0610 
  5 H        1.5020     1.3000     0.7170 H     1 <1>   0.0000 
  6 H        1.1730     0.8240    -0.9630 H     1 <1>   0.0000 
  7 C        2.5910    -0.4410     0.0570 C.3   1 <1>   0.0000 
  8 H        2.4550    -1.3070    -0.6010 H     1 <1>   0.0000 
  9 H        3.4680     0.1160    -0.2860 H     1 <1>   0.0000 
 10 H        2.7970    -0.8190     1.0640 H     1 <1>   0.0000 
@<TRIPOS>BOND
  1   1   2  1   
  2   2   3  2   
  3   2   4  1   
  4   4   5  1   
  5   4   6  1   
  6   4   7  1   
  7   7   8  1   
  8   7   9  1   
  9   7  10  1   
@<TRIPOS>SUBSTRUCTURE
  1 ****   2 GROUP 4 **** **** 0

# MOE 2022.02 (io_trps.svl 2020.11)

@<TRIPOS>MOLECULE
ACT027
11 10 1 0 0 
SMALL
USER_CHARGES


@<TRIPOS>ATOM
  1 H       -0.4090    -0.2070     0.2640 H     1 <1>   0.5000 
  2 O        0.2850    -0.8730     0.0750 O.3   1 <1>  -0.6500 
  3 C        1.4310    -0.1630     0.0860 C.2   1 <1>   0.6590 
  4 O        1.4160     1.0360     0.3010 O.2   1 <1>  -0.5700 
  5 C        2.6270    -1.0320    -0.1910 C.3   1 <1>   0.0610 
  6 H        2.4970    -1.5010    -1.1710 H     1 <1>   0.0000 
  7 H        2.6750    -1.8110     0.5770 H     1 <1>   0.0000 
  8 C        3.9190    -0.2330    -0.1810 C.3   1 <1>   0.0000 
  9 H        4.7730    -0.8870    -0.3800 H     1 <1>   0.0000 
 10 H        4.0750     0.2500     0.7900 H     1 <1>   0.0000 
 11 H        3.9020     0.5510    -0.9450 H     1 <1>   0.0000 
@<TRIPOS>BOND
  1   1   2  1   
  2   2   3  1   
  3   3   4  2   
  4   3   5  1   
  5   5   6  1   
  6   5   7  1   
  7   5   8  1   
  8   8   9  1   
  9   8  10  1   
 10   8  11  1   
@<TRIPOS>SUBSTRUCTURE
  1 ****   3 GROUP 4 **** **** 0

# MOE 2022.02 (io_trps.svl 2020.11)

@<TRIPOS>MOLECULE
ACT028
9 8 1 0 0 
SMALL
USER_CHARGES


@<TRIPOS>ATOM
  1 H       -0.0770    -0.6620    -0.2920 H     1 <1>   0.1500 
  2 C        0.0340     0.2720     0.2510 C.2   1 <1>  -0.3000 
  3 H       -0.8730     0.7830     0.5600 H     1 <1>   0.1500 
  4 C        1.2380     0.7830     0.5340 C.2   1 <1>  -0.2880 
  5 H        1.3010     1.7210     1.0810 H     1 <1>   0.1500 
  6 C        2.5320     0.1440     0.1480 C.3   1 <1>   0.1380 
  7 H        2.3830    -0.7940    -0.3960 H     1 <1>   0.0000 
  8 H        3.1230    -0.0710     1.0430 H     1 <1>   0.0000 
  9 H        3.1070     0.8220    -0.4900 H     1 <1>   0.0000 
@<TRIPOS>BOND
  1   1   2  1   
  2   2   3  1   
  3   2   4  2   
  4   4   5  1   
  5   4   6  1   
  6   6   7  1   
  7   6   8  1   
  8   6   9  1   
@<TRIPOS>SUBSTRUCTURE
  1 ****   4 GROUP 4 **** **** 0

# MOE 2022.02 (io_trps.svl 2020.11)

@<TRIPOS>MOLECULE
ACT029
13 12 1 0 0 
SMALL
USER_CHARGES


@<TRIPOS>ATOM
  1 H       -0.8790    -0.7600    -0.2390 H     1 <1>   0.3600 
  2 N       -0.0550    -0.1760    -0.1060 N.3   1 <1>  -0.9900 
  3 H        0.0030     0.4270    -0.9260 H     1 <1>   0.3600 
  4 C        1.1300    -1.0220    -0.0330 C.3   1 <1>   0.2700 
  5 H        1.0430    -1.6840     0.8350 H     1 <1>   0.0000 
  6 H        1.1830    -1.6510    -0.9290 H     1 <1>   0.0000 
  7 C        2.3870    -0.1640     0.0840 C.3   1 <1>   0.0000 
  8 H        2.4760     0.4960    -0.7870 H     1 <1>   0.0000 
  9 H        2.3250     0.4780     0.9710 H     1 <1>   0.0000 
 10 C        3.6370    -1.0250     0.1820 C.3   1 <1>   0.0000 
 11 H        3.6010    -1.6700     1.0660 H     1 <1>   0.0000 
 12 H        3.7460    -1.6610    -0.7030 H     1 <1>   0.0000 
 13 H        4.5270    -0.3940     0.2580 H     1 <1>   0.0000 
@<TRIPOS>BOND
  1   1   2  1   
  2   2   3  1   
  3   2   4  1   
  4   4   5  1   
  5   4   6  1   
  6   4   7  1   
  7   7   8  1   
  8   7   9  1   
  9   7  10  1   
 10  10  11  1   
 11  10  12  1   
 12  10  13  1   
@<TRIPOS>SUBSTRUCTURE
  1 ****   7 GROUP 4 **** **** 0

# MOE 2022.02 (io_trps.svl 2020.11)

@<TRIPOS>MOLECULE
ACT030
14 14 1 0 0 
SMALL
USER_CHARGES


@<TRIPOS>ATOM
  1 H       -3.5550     2.4240    -1.4490 H     1 <1>   0.1500 
  2 C       -2.8450     1.8710    -0.8500 C.2   1 <1>  -0.0100 
  3 O       -1.5380     2.1670    -1.0680 O.3   1 <1>  -0.2800 
  4 C       -0.8060     1.3780    -0.2270 C.2   1 <1>  -0.0400 
  5 C        0.6680     1.5310    -0.2860 C.3   1 <1>   0.4500 
  6 H        0.9640     1.9690    -1.2460 H     1 <1>   0.0000 
  7 H        1.1470     0.5490    -0.2130 H     1 <1>   0.0000 
  8 N        1.1420     2.3800     0.8030 N.3   1 <1>  -0.9900 
  9 H        2.1280     2.5810     0.6570 H     1 <1>   0.3600 
 10 H        0.6560     3.2750     0.7390 H     1 <1>   0.3600 
 11 C       -1.6480     0.5850     0.5260 C.2   1 <1>  -0.1500 
 12 H       -1.3410    -0.1270     1.2790 H     1 <1>   0.1500 
 13 C       -2.9660     0.9040     0.1210 C.2   1 <1>  -0.1500 
 14 H       -3.8910     0.4860     0.4930 H     1 <1>   0.1500 
@<TRIPOS>BOND
  1   1   2  1   
  2   2   3  1   
  3   2  13  2   
  4   3   4  1   
  5   4   5  1   
  6   4  11  2   
  7   5   6  1   
  8   5   7  1   
  9   5   8  1   
 10   8   9  1   
 11   8  10  1   
 12  11  12  1   
 13  11  13  1   
 14  13  14  1   
@<TRIPOS>SUBSTRUCTURE
  1 ****   4 GROUP 4 **** **** 0

# MOE 2022.02 (io_trps.svl 2020.11)

@<TRIPOS>MOLECULE
ACT031
25 26 1 0 0 
SMALL
USER_CHARGES


@<TRIPOS>ATOM
  1 H        8.4510     5.8880     0.7990 H     1 <1>   0.0600 
  2 C        8.8320     5.2100     0.0160 C.2   1 <1>   0.4490 
  3 O        9.7040     5.5780    -0.7640 O.2   1 <1>  -0.5700 
  4 C        8.2700     3.8140     0.0210 C.3   1 <1>   0.0610 
  5 H        8.6610     3.2720    -0.8460 H     1 <1>   0.0000 
  6 H        8.6220     3.3140     0.9300 H     1 <1>   0.0000 
  7 C        6.7470     3.8620    -0.0130 C.3   1 <1>   0.0000 
  8 H        6.3800     4.4140     0.8620 H     1 <1>   0.0000 
  9 H        6.4160     4.4280    -0.8940 H     1 <1>   0.0000 
 10 C        6.1440     2.4560    -0.0380 C.3   1 <1>   0.1800 
 11 H        6.4760     1.9000     0.8480 H     1 <1>   0.0000 
 12 H        6.5150     1.9210    -0.9200 H     1 <1>   0.0000 
 13 C        4.6440     2.4790    -0.0600 C.2   1 <1>   0.1980 
 14 N        3.9030     3.5450     0.1500 N.2   1 <1>  -0.5650 
 15 C        2.5600     3.2150     0.0620 C.ar  1 <1>   0.2270 
 16 C        1.4780     4.1040     0.2230 C.ar  1 <1>  -0.1500 
 17 H        1.6740     5.1500     0.4340 H     1 <1>   0.1500 
 18 C        0.1670     3.6320     0.1070 C.ar  1 <1>  -0.1500 
 19 H       -0.6650     4.3220     0.2310 H     1 <1>   0.1500 
 20 C       -0.0780     2.2890    -0.1650 C.ar  1 <1>  -0.1500 
 21 H       -1.1030     1.9350    -0.2510 H     1 <1>   0.1500 
 22 C        0.9780     1.3870    -0.3280 C.ar  1 <1>  -0.1500 
 23 H        0.7860     0.3400    -0.5400 H     1 <1>   0.1500 
 24 C        2.2910     1.8730    -0.2110 C.ar  1 <1>   0.0400 
 25 S        3.7810     1.0230    -0.3590 S.3   1 <1>  -0.0800 
@<TRIPOS>BOND
  1   1   2  1   
  2   2   3  2   
  3   2   4  1   
  4   4   5  1   
  5   4   6  1   
  6   4   7  1   
  7   7   8  1   
  8   7   9  1   
  9   7  10  1   
 10  10  11  1   
 11  10  12  1   
 12  10  13  1   
 13  13  14  2   
 14  13  25  1   
 15  14  15  1   
 16  15  16  ar  
 17  15  24  ar  
 18  16  17  1   
 19  16  18  ar  
 20  18  19  1   
 21  18  20  ar  
 22  20  21  1   
 23  20  22  ar  
 24  22  23  1   
 25  22  24  ar  
 26  24  25  1   
@<TRIPOS>SUBSTRUCTURE
  1 ****  14 GROUP 4 **** **** 0

# MOE 2022.02 (io_trps.svl 2020.11)

@<TRIPOS>MOLECULE
ACT032
8 8 1 0 0 
SMALL
USER_CHARGES


@<TRIPOS>ATOM
  1 H        1.7910     1.8180     0.0010 H     1 <1>   0.1500 
  2 C        0.7450     1.5430     0.0000 C.2   1 <1>   0.2280 
  3 N        0.3490     0.2890     0.0000 N.2   1 <1>  -0.5650 
  4 C       -1.0320     0.2510    -0.0020 C.2   1 <1>   0.0770 
  5 H       -1.5330    -0.7100    -0.0030 H     1 <1>   0.1500 
  6 C       -1.6640     1.4760    -0.0030 C.2   1 <1>  -0.1100 
  7 H       -2.7230     1.6880    -0.0040 H     1 <1>   0.1500 
  8 S       -0.4940     2.7310    -0.0010 S.3   1 <1>  -0.0800 
@<TRIPOS>BOND
  1   1   2  1   
  2   2   3  2   
  3   2   8  1   
  4   3   4  1   
  5   4   5  1   
  6   4   6  2   
  7   6   7  1   
  8   6   8  1   
@<TRIPOS>SUBSTRUCTURE
  1 ****   4 GROUP 4 **** **** 0

# MOE 2022.02 (io_trps.svl 2020.11)

@<TRIPOS>MOLECULE
ACT033
23 23 1 0 0 
SMALL
USER_CHARGES


@<TRIPOS>ATOM
  1 H        9.4140    -0.1710     0.2500 H     1 <1>   0.0600 
  2 C        8.4970    -0.1230     0.8620 C.2   1 <1>   0.4490 
  3 O        8.5530    -0.0800     2.0860 O.2   1 <1>  -0.5700 
  4 C        7.2030    -0.0510     0.1070 C.3   1 <1>   0.0610 
  5 H        6.3880    -0.3290     0.7830 H     1 <1>   0.0000 
  6 H        7.2350    -0.7970    -0.6940 H     1 <1>   0.0000 
  7 C        7.0230     1.3530    -0.4320 C.3   1 <1>   0.1050 
  8 H        7.8630     1.6250    -1.0820 H     1 <1>   0.0000 
  9 H        6.9850     2.0930     0.3750 H     1 <1>   0.0000 
 10 S        5.5530     1.5330    -1.4100 S.o2  1 <1>   1.2040 
 11 O        5.4730     2.9150    -1.8400 O.2   1 <1>  -0.6500 
 12 O        5.5320     0.4540    -2.3800 O.2   1 <1>  -0.6500 
 13 C        4.2160     1.2700    -0.2700 C.ar  1 <1>  -0.0090 
 14 C        3.4880     0.0770    -0.3100 C.ar  1 <1>  -0.1500 
 15 H        3.7250    -0.7030    -1.0320 H     1 <1>   0.1500 
 16 C        2.4340    -0.1130     0.5850 C.ar  1 <1>  -0.1500 
 17 H        1.8670    -1.0410     0.5570 H     1 <1>   0.1500 
 18 C        2.1120     0.8890     1.5010 C.ar  1 <1>   0.1110 
 19 BR       0.6820     0.6280     2.7100 Br    1 <1>  -0.1110 
 20 C        2.8300     2.0860     1.5290 C.ar  1 <1>  -0.1500 
 21 H        2.5690     2.8710     2.2340 H     1 <1>   0.1500 
 22 C        3.8850     2.2820     0.6360 C.ar  1 <1>  -0.1500 
 23 H        4.4280     3.2250     0.6470 H     1 <1>   0.1500 
@<TRIPOS>BOND
  1   1   2  1   
  2   2   3  2   
  3   2   4  1   
  4   4   5  1   
  5   4   6  1   
  6   4   7  1   
  7   7   8  1   
  8   7   9  1   
  9   7  10  1   
 10  10  11  2   
 11  10  12  2   
 12  10  13  1   
 13  13  14  ar  
 14  13  22  ar  
 15  14  15  1   
 16  14  16  ar  
 17  16  17  1   
 18  16  18  ar  
 19  18  19  1   
 20  18  20  ar  
 21  20  21  1   
 22  20  22  ar  
 23  22  23  1   
@<TRIPOS>SUBSTRUCTURE
  1 ****  13 GROUP 4 **** **** 0

# MOE 2022.02 (io_trps.svl 2020.11)

@<TRIPOS>MOLECULE
ACT034
40 42 1 0 0 
SMALL
USER_CHARGES


@<TRIPOS>ATOM
  1 H      -10.1000    -4.9360     0.8030 H     1 <1>   0.1500 
  2 C       -9.5840    -3.9970     0.6270 C.ar  1 <1>   0.1600 
  3 N       -8.2420    -4.0930     0.5100 N.ar  1 <1>  -0.6200 
  4 C       -7.5430    -2.9650     0.2900 C.ar  1 <1>   0.3100 
  5 C       -6.1640    -3.0390     0.1620 C.ar  1 <1>  -0.1500 
  6 H       -5.7180    -4.0240     0.2470 H     1 <1>   0.1500 
  7 C       -5.3830    -1.9000    -0.0700 C.ar  1 <1>   0.0820 
  8 O       -4.0170    -1.9130    -0.2110 O.3   1 <1>  -0.3630 
  9 C       -3.3420    -3.1600    -0.0490 C.3   1 <1>   0.2800 
 10 H       -3.6850    -3.8650    -0.8170 H     1 <1>   0.0000 
 11 H       -3.5420    -3.5720     0.9480 H     1 <1>   0.0000 
 12 C       -1.8360    -2.9270    -0.2220 C.3   1 <1>   0.0000 
 13 H       -1.6720    -2.4520    -1.2000 H     1 <1>   0.0000 
 14 C       -1.2850    -1.9750     0.8510 C.3   1 <1>   0.0000 
 15 H       -1.7390    -0.9830     0.7500 H     1 <1>   0.0000 
 16 H       -1.5500    -2.3460     1.8500 H     1 <1>   0.0000 
 17 C        0.2330    -1.8430     0.7470 C.3   1 <1>   0.2700 
 18 H        0.5960    -1.2200     1.5720 H     1 <1>   0.0000 
 19 H        0.5070    -1.3320    -0.1840 H     1 <1>   0.0000 
 20 N        0.8900    -3.1490     0.8180 N.3   1 <1>  -0.9000 
 21 H        1.8980    -3.0200     0.7420 H     1 <1>   0.3600 
 22 C        0.4350    -4.0330    -0.2550 C.3   1 <1>   0.2700 
 23 H        0.9450    -4.9980    -0.1590 H     1 <1>   0.0000 
 24 H        0.7140    -3.6190    -1.2310 H     1 <1>   0.0000 
 25 C       -1.0740    -4.2560    -0.1850 C.3   1 <1>   0.0000 
 26 H       -1.3860    -4.8900    -1.0230 H     1 <1>   0.0000 
 27 H       -1.3190    -4.8030     0.7350 H     1 <1>   0.0000 
 28 C       -6.0020    -0.6420    -0.1750 C.ar  1 <1>   0.0820 
 29 O       -5.1690     0.4260    -0.4030 O.3   1 <1>  -0.3630 
 30 C       -5.7500     1.7210    -0.4460 C.3   1 <1>   0.2800 
 31 H       -4.9450     2.4450    -0.6040 H     1 <1>   0.0000 
 32 H       -6.2370     1.9680     0.5040 H     1 <1>   0.0000 
 33 H       -6.4480     1.8130    -1.2850 H     1 <1>   0.0000 
 34 C       -7.3900    -0.5520    -0.0500 C.ar  1 <1>  -0.1500 
 35 H       -7.8980     0.4030    -0.1310 H     1 <1>   0.1500 
 36 C       -8.1620    -1.7040     0.1820 C.ar  1 <1>   0.0000 
 37 C       -9.5570    -1.6450     0.3100 C.ar  1 <1>  -0.1500 
 38 H      -10.0820    -0.6960     0.2340 H     1 <1>   0.1500 
 39 C      -10.2820    -2.8080     0.5360 C.ar  1 <1>  -0.1500 
 40 H      -11.3610    -2.7870     0.6380 H     1 <1>   0.1500 
@<TRIPOS>BOND
  1   1   2  1   
  2   2   3  ar  
  3   2  39  ar  
  4   3   4  ar  
  5   4   5  ar  
  6   4  36  ar  
  7   5   6  1   
  8   5   7  ar  
  9   7   8  1   
 10   7  28  ar  
 11   8   9  1   
 12   9  10  1   
 13   9  11  1   
 14   9  12  1   
 15  12  13  1   
 16  12  14  1   
 17  12  25  1   
 18  14  15  1   
 19  14  16  1   
 20  14  17  1   
 21  17  18  1   
 22  17  19  1   
 23  17  20  1   
 24  20  21  1   
 25  20  22  1   
 26  22  23  1   
 27  22  24  1   
 28  22  25  1   
 29  25  26  1   
 30  25  27  1   
 31  28  29  1   
 32  28  34  ar  
 33  29  30  1   
 34  30  31  1   
 35  30  32  1   
 36  30  33  1   
 37  34  35  1   
 38  34  36  ar  
 39  36  37  ar  
 40  37  38  1   
 41  37  39  ar  
 42  39  40  1   
@<TRIPOS>SUBSTRUCTURE
  1 ****   7 GROUP 4 **** **** 0

# MOE 2022.02 (io_trps.svl 2020.11)

@<TRIPOS>MOLECULE
ACT035
18 19 1 0 0 
SMALL
USER_CHARGES


@<TRIPOS>ATOM
  1 H        2.8610     1.1710    -0.0940 H     1 <1>   0.3600 
  2 N        2.0840     1.7750    -0.3540 N.3   1 <1>  -0.7790 
  3 C        0.7890     1.0720    -0.5530 C.3   1 <1>   0.2100 
  4 H        0.7500     0.0930    -0.0620 H     1 <1>   0.0000 
  5 H        0.4960     0.9550    -1.6000 H     1 <1>   0.0000 
  6 C        0.1410     2.1930     0.2170 C.3   1 <1>   0.0000 
  7 C        1.4900     2.5430     0.7710 C.3   1 <1>   0.2100 
  8 H        1.7580     3.6030     0.7840 H     1 <1>   0.0000 
  9 H        1.7080     2.1100     1.7540 H     1 <1>   0.0000 
 10 C       -1.0200     1.9000     1.1280 C.3   1 <1>   0.0000 
 11 H       -1.2230     0.8490     1.3510 H     1 <1>   0.0000 
 12 H       -1.0110     2.4680     2.0650 H     1 <1>   0.0000 
 13 C       -1.9210     2.5320     0.0350 C.3   1 <1>   0.0000 
 14 H       -2.7060     3.2010     0.3980 H     1 <1>   0.0000 
 15 H       -2.3640     1.7960    -0.6460 H     1 <1>   0.0000 
 16 C       -0.6590     3.2280    -0.5390 C.3   1 <1>   0.0000 
 17 H       -0.5290     4.2540    -0.1770 H     1 <1>   0.0000 
 18 H       -0.5790     3.2230    -1.6290 H     1 <1>   0.0000 
@<TRIPOS>BOND
  1   1   2  1   
  2   2   3  1   
  3   2   7  1   
  4   3   4  1   
  5   3   5  1   
  6   3   6  1   
  7   6   7  1   
  8   6  10  1   
  9   6  16  1   
 10   7   8  1   
 11   7   9  1   
 12  10  11  1   
 13  10  12  1   
 14  10  13  1   
 15  13  14  1   
 16  13  15  1   
 17  13  16  1   
 18  16  17  1   
 19  16  18  1   
@<TRIPOS>SUBSTRUCTURE
  1 ****   6 GROUP 4 **** **** 0

# MOE 2022.02 (io_trps.svl 2020.11)

@<TRIPOS>MOLECULE
ACT036
16 17 1 0 0 
SMALL
USER_CHARGES


@<TRIPOS>ATOM
  1 H        4.9890     1.0980     0.0010 H     1 <1>   0.1500 
  2 C        4.0410     1.6330     0.0010 C.ar  1 <1>  -0.1500 
  3 C        4.0400     3.0440     0.0040 C.ar  1 <1>  -0.1500 
  4 H        4.9890     3.5790     0.0060 H     1 <1>   0.1500 
  5 C        2.8400     3.7620     0.0050 C.ar  1 <1>  -0.1500 
  6 H        2.8250     4.8470     0.0080 H     1 <1>   0.1500 
  7 C        1.6700     3.0300     0.0030 C.ar  1 <1>   0.0860 
  8 C        1.6700     1.6450     0.0000 C.ar  1 <1>   0.0860 
  9 C        2.8410     0.9130    -0.0010 C.ar  1 <1>  -0.1500 
 10 H        2.8270    -0.1720    -0.0030 H     1 <1>   0.1500 
 11 C        0.2750     1.2060    -0.0010 C.2   1 <1>   0.5440 
 12 O       -0.1020     0.0520    -0.0030 O.2   1 <1>  -0.5700 
 13 N       -0.4830     2.3370     0.0030 N.am  1 <1>  -0.4900 
 14 H       -1.4900     2.3360     0.0040 H     1 <1>   0.3700 
 15 C        0.2740     3.4680     0.0050 C.2   1 <1>   0.5440 
 16 O       -0.1040     4.6220     0.0080 O.2   1 <1>  -0.5700 
@<TRIPOS>BOND
  1   1   2  1   
  2   2   3  ar  
  3   2   9  ar  
  4   3   4  1   
  5   3   5  ar  
  6   5   6  1   
  7   5   7  ar  
  8   7   8  ar  
  9   7  15  1   
 10   8   9  ar  
 11   8  11  1   
 12   9  10  1   
 13  11  12  2   
 14  11  13  am  
 15  13  14  1   
 16  13  15  am  
 17  15  16  2   
@<TRIPOS>SUBSTRUCTURE
  1 ****   8 GROUP 4 **** **** 0

# MOE 2022.02 (io_trps.svl 2020.11)

@<TRIPOS>MOLECULE
ACT037
17 17 1 0 0 
SMALL
USER_CHARGES


@<TRIPOS>ATOM
  1 H        4.0800    -0.1940     1.4390 H     1 <1>   0.0600 
  2 C        4.4960    -1.1640     1.1150 C.2   1 <1>   0.4490 
  3 O        5.4480    -1.6640     1.7080 O.2   1 <1>  -0.5700 
  4 C        3.8840    -1.7610    -0.1250 C.3   1 <1>   0.2040 
  5 H        4.2880    -2.7680    -0.2810 H     1 <1>   0.0000 
  6 H        4.1960    -1.1500    -0.9800 H     1 <1>   0.0000 
  7 C        2.3820    -1.8170    -0.0330 C.ar  1 <1>  -0.1440 
  8 C        1.7590    -2.8120     0.7330 C.ar  1 <1>  -0.1500 
  9 H        2.3540    -3.5620     1.2520 H     1 <1>   0.1500 
 10 C        0.3690    -2.8550     0.8390 C.ar  1 <1>  -0.1500 
 11 H       -0.1060    -3.6320     1.4330 H     1 <1>   0.1500 
 12 C       -0.4110    -1.9040     0.1850 C.ar  1 <1>  -0.1500 
 13 H       -1.4950    -1.9390     0.2680 H     1 <1>   0.1500 
 14 C        0.1980    -0.9080    -0.5760 C.ar  1 <1>  -0.1500 
 15 H       -0.4120    -0.1670    -1.0870 H     1 <1>   0.1500 
 16 C        1.5890    -0.8620    -0.6850 C.ar  1 <1>  -0.1500 
 17 H        2.0440    -0.0780    -1.2850 H     1 <1>   0.1500 
@<TRIPOS>BOND
  1   1   2  1   
  2   2   3  2   
  3   2   4  1   
  4   4   5  1   
  5   4   6  1   
  6   4   7  1   
  7   7   8  ar  
  8   7  16  ar  
  9   8   9  1   
 10   8  10  ar  
 11  10  11  1   
 12  10  12  ar  
 13  12  13  1   
 14  12  14  ar  
 15  14  15  1   
 16  14  16  ar  
 17  16  17  1   
@<TRIPOS>SUBSTRUCTURE
  1 ****   7 GROUP 4 **** **** 0

# MOE 2022.02 (io_trps.svl 2020.11)

@<TRIPOS>MOLECULE
ACT038
10 10 1 0 0 
SMALL
USER_CHARGES


@<TRIPOS>ATOM
  1 H        1.7110     2.0620     0.0010 H     1 <1>   0.1500 
  2 C        0.7090     1.6550     0.0000 C.2   1 <1>  -0.1500 
  3 C        0.3480     0.2860    -0.0010 C.2   1 <1>  -0.1500 
  4 H        1.0190    -0.5630    -0.0010 H     1 <1>   0.1500 
  5 C       -1.0280     0.2250    -0.0010 C.2   1 <1>  -0.3020 
  6 H       -1.7040    -0.6200    -0.0020 H     1 <1>   0.1500 
  7 N       -1.5090     1.5080     0.0010 N.pl3 1 <1>   0.0330 
  8 H       -2.4870     1.7660     0.0010 H     1 <1>   0.2700 
  9 C       -0.4570     2.3870     0.0020 C.2   1 <1>  -0.3020 
 10 H       -0.6280     3.4550     0.0030 H     1 <1>   0.1500 
@<TRIPOS>BOND
  1   1   2  1   
  2   2   3  1   
  3   2   9  2   
  4   3   4  1   
  5   3   5  2   
  6   5   6  1   
  7   5   7  1   
  8   7   8  1   
  9   7   9  1   
 10   9  10  1   
@<TRIPOS>SUBSTRUCTURE
  1 ****   7 GROUP 4 **** **** 0

# MOE 2022.02 (io_trps.svl 2020.11)

@<TRIPOS>MOLECULE
ACT039
12 11 1 0 0 
SMALL
USER_CHARGES


@<TRIPOS>ATOM
  1 H       -1.0200     1.7470     0.9620 H     1 <1>   0.1500 
  2 C       -0.9720     0.8820     0.3040 C.2   1 <1>  -0.2880 
  3 C        0.2170     0.4390    -0.1320 C.2   1 <1>  -0.2880 
  4 H        0.2640    -0.4270    -0.7890 H     1 <1>   0.1500 
  5 C        1.5250     1.0660     0.2260 C.3   1 <1>   0.1380 
  6 H        2.1600     0.3350     0.7370 H     1 <1>   0.0000 
  7 H        2.0400     1.3960    -0.6810 H     1 <1>   0.0000 
  8 H        1.4030     1.9320     0.8840 H     1 <1>   0.0000 
  9 C       -2.2790     0.2540    -0.0570 C.3   1 <1>   0.1380 
 10 H       -2.9170     0.9870    -0.5610 H     1 <1>   0.0000 
 11 H       -2.7930    -0.0850     0.8480 H     1 <1>   0.0000 
 12 H       -2.1560    -0.6060    -0.7220 H     1 <1>   0.0000 
@<TRIPOS>BOND
  1   1   2  1   
  2   2   3  2   
  3   2   9  1   
  4   3   4  1   
  5   3   5  1   
  6   5   6  1   
  7   5   7  1   
  8   5   8  1   
  9   9  10  1   
 10   9  11  1   
 11   9  12  1   
@<TRIPOS>SUBSTRUCTURE
  1 ****   3 GROUP 4 **** **** 0

# MOE 2022.02 (io_trps.svl 2020.11)

@<TRIPOS>MOLECULE
ACT040
40 40 1 0 0 
SMALL
USER_CHARGES


@<TRIPOS>ATOM
  1 H        7.5110    -2.6230    -1.6970 H     1 <1>   0.4000 
  2 O        6.5460    -2.4800    -1.7320 O.3   1 <1>  -0.6800 
  3 C        6.0440    -2.9200    -0.4780 C.3   1 <1>   0.2800 
  4 H        6.4360    -2.2510     0.2990 H     1 <1>   0.0000 
  5 C        6.4330    -4.3570    -0.1910 C.3   1 <1>   0.2800 
  6 H        6.3030    -4.9770    -1.0860 H     1 <1>   0.0000 
  7 O        7.7880    -4.4480     0.2230 O.3   1 <1>  -0.6800 
  8 H        7.9750    -5.3860     0.4120 H     1 <1>   0.4000 
  9 C        5.4340    -4.7190     0.8910 C.3   1 <1>   0.2800 
 10 H        5.8010    -4.4650     1.8910 H     1 <1>   0.0000 
 11 H        5.1940    -5.7870     0.8850 H     1 <1>   0.0000 
 12 O        4.2410    -3.9600     0.6390 O.3   1 <1>  -0.5600 
 13 C        4.5200    -3.0140    -0.4260 C.3   1 <1>   0.2800 
 14 H        4.1310    -3.4260    -1.3660 H     1 <1>   0.0000 
 15 C        3.8680    -1.6400    -0.1480 C.3   1 <1>   0.2700 
 16 H        4.3960    -0.9170    -0.7770 H     1 <1>   0.0000 
 17 H        4.0550    -1.3740     0.9000 H     1 <1>   0.0000 
 18 N        2.4100    -1.5360    -0.4340 N.3   1 <1>  -0.8100 
 19 C        1.6390    -2.5360     0.3340 C.3   1 <1>   0.2700 
 20 H        1.8730    -2.4580     1.4030 H     1 <1>   0.0000 
 21 H        1.9500    -3.5320     0.0040 H     1 <1>   0.0000 
 22 C        0.1120    -2.4970     0.1530 C.3   1 <1>   0.0000 
 23 H       -0.2990    -1.5730     0.5760 H     1 <1>   0.0000 
 24 H       -0.1360    -2.5150    -0.9150 H     1 <1>   0.0000 
 25 C       -0.5420    -3.6890     0.8550 C.3   1 <1>   0.2700 
 26 H       -0.2880    -3.6850     1.9210 H     1 <1>   0.0000 
 27 H       -0.1720    -4.6280     0.4280 H     1 <1>   0.0000 
 28 N       -1.9930    -3.6440     0.7070 N.3   1 <1>  -0.9900 
 29 H       -2.3560    -2.7890     1.1280 H     1 <1>   0.3600 
 30 H       -2.4100    -4.4170     1.2240 H     1 <1>   0.3600 
 31 C        1.8920    -0.1520    -0.3240 C.3   1 <1>   0.2700 
 32 H        0.8350    -0.1650    -0.6120 H     1 <1>   0.0000 
 33 C        2.5400     0.7920    -1.3490 C.3   1 <1>   0.0000 
 34 H        1.9760     1.7300    -1.4080 H     1 <1>   0.0000 
 35 H        3.5700     1.0530    -1.0860 H     1 <1>   0.0000 
 36 H        2.5380     0.3470    -2.3500 H     1 <1>   0.0000 
 37 C        1.9810     0.4630     1.0780 C.3   1 <1>   0.0000 
 38 H        3.0180     0.6070     1.3970 H     1 <1>   0.0000 
 39 H        1.4750    -0.1560     1.8250 H     1 <1>   0.0000 
 40 H        1.4960     1.4450     1.0920 H     1 <1>   0.0000 
@<TRIPOS>BOND
  1   1   2  1   
  2   2   3  1   
  3   3   4  1   
  4   3   5  1   
  5   3  13  1   
  6   5   6  1   
  7   5   7  1   
  8   5   9  1   
  9   7   8  1   
 10   9  10  1   
 11   9  11  1   
 12   9  12  1   
 13  12  13  1   
 14  13  14  1   
 15  13  15  1   
 16  15  16  1   
 17  15  17  1   
 18  15  18  1   
 19  18  19  1   
 20  18  31  1   
 21  19  20  1   
 22  19  21  1   
 23  19  22  1   
 24  22  23  1   
 25  22  24  1   
 26  22  25  1   
 27  25  26  1   
 28  25  27  1   
 29  25  28  1   
 30  28  29  1   
 31  28  30  1   
 32  31  32  1   
 33  31  33  1   
 34  31  37  1   
 35  33  34  1   
 36  33  35  1   
 37  33  36  1   
 38  37  38  1   
 39  37  39  1   
 40  37  40  1   
@<TRIPOS>SUBSTRUCTURE
  1 ****  15 GROUP 4 **** **** 0

# MOE 2022.02 (io_trps.svl 2020.11)

@<TRIPOS>MOLECULE
ACT041
26 26 1 0 0 
SMALL
USER_CHARGES


@<TRIPOS>ATOM
  1 H        0.6660    -3.2420    -1.0520 H     1 <1>   0.1500 
  2 C        0.1820    -2.3700    -0.6220 C.ar  1 <1>  -0.1500 
  3 C       -1.2160    -2.3500    -0.5240 C.ar  1 <1>  -0.1500 
  4 H       -1.7620    -3.2170    -0.8870 H     1 <1>   0.1500 
  5 C       -1.9000    -1.2490     0.0230 C.ar  1 <1>  -0.1440 
  6 C       -3.4350    -1.2600     0.1170 C.3   1 <1>   0.1440 
  7 C       -4.0310     0.0210     0.7420 C.3   1 <1>   0.0000 
  8 H       -3.7780     0.9120     0.1560 H     1 <1>   0.0000 
  9 H       -3.6740     0.1740     1.7670 H     1 <1>   0.0000 
 10 H       -5.1260    -0.0340     0.7870 H     1 <1>   0.0000 
 11 C       -3.8930    -2.4490     0.9890 C.3   1 <1>   0.0000 
 12 H       -4.9830    -2.4600     1.1030 H     1 <1>   0.0000 
 13 H       -3.4540    -2.3950     1.9930 H     1 <1>   0.0000 
 14 H       -3.6070    -3.4150     0.5570 H     1 <1>   0.0000 
 15 C       -4.0410    -1.4040    -1.2960 C.3   1 <1>   0.0000 
 16 H       -3.7090    -0.5900    -1.9520 H     1 <1>   0.0000 
 17 H       -5.1370    -1.3790    -1.2600 H     1 <1>   0.0000 
 18 H       -3.7580    -2.3480    -1.7740 H     1 <1>   0.0000 
 19 C       -1.1180    -0.1720     0.4670 C.ar  1 <1>  -0.1500 
 20 H       -1.5690     0.7150     0.9020 H     1 <1>   0.1500 
 21 C        0.2800    -0.1960     0.3670 C.ar  1 <1>  -0.1500 
 22 H        0.8450     0.6600     0.7240 H     1 <1>   0.1500 
 23 C        0.9430    -1.2930    -0.1770 C.ar  1 <1>   0.1000 
 24 N        2.3210    -1.3130    -0.2720 N.pl3 1 <1>  -0.9000 
 25 H        2.7980    -2.1120    -0.6660 H     1 <1>   0.4000 
 26 H        2.8700    -0.5290     0.0500 H     1 <1>   0.4000 
@<TRIPOS>BOND
  1   1   2  1   
  2   2   3  ar  
  3   2  23  ar  
  4   3   4  1   
  5   3   5  ar  
  6   5   6  1   
  7   5  19  ar  
  8   6   7  1   
  9   6  11  1   
 10   6  15  1   
 11   7   8  1   
 12   7   9  1   
 13   7  10  1   
 14  11  12  1   
 15  11  13  1   
 16  11  14  1   
 17  15  16  1   
 18  15  17  1   
 19  15  18  1   
 20  19  20  1   
 21  19  21  ar  
 22  21  22  1   
 23  21  23  ar  
 24  23  24  1   
 25  24  25  1   
 26  24  26  1   
@<TRIPOS>SUBSTRUCTURE
  1 ****   5 GROUP 4 **** **** 0

# MOE 2022.02 (io_trps.svl 2020.11)

@<TRIPOS>MOLECULE
ACT042
22 23 1 0 0 
SMALL
USER_CHARGES


@<TRIPOS>ATOM
  1 H        5.4120    -4.3020    -0.0090 H     1 <1>   0.0600 
  2 C        6.0090    -3.3740    -0.0200 C.2   1 <1>   0.4240 
  3 O        7.2330    -3.4070    -0.0340 O.2   1 <1>  -0.5700 
  4 C        5.2550    -2.1030    -0.0170 C.ar  1 <1>   0.0860 
  5 C        5.9390    -0.8880    -0.0300 C.ar  1 <1>  -0.1500 
  6 H        7.0270    -0.8670    -0.0420 H     1 <1>   0.1500 
  7 C        5.2200     0.3030    -0.0260 C.ar  1 <1>  -0.1500 
  8 H        5.7470     1.2540    -0.0360 H     1 <1>   0.1500 
  9 C        3.8210     0.2810    -0.0110 C.ar  1 <1>  -0.1500 
 10 H        3.3120     1.2400    -0.0090 H     1 <1>   0.1500 
 11 C        3.1220    -0.9380     0.0020 C.ar  1 <1>  -0.0230 
 12 N        1.6890    -0.9570     0.0190 N.pl3 1 <1>   0.3260 
 13 C        0.8480     0.1420     0.0260 C.2   1 <1>  -0.3020 
 14 H        1.2270     1.1520     0.0210 H     1 <1>   0.1500 
 15 C       -0.4640    -0.2820     0.0420 C.2   1 <1>  -0.1500 
 16 H       -1.3350     0.3610     0.0510 H     1 <1>   0.1500 
 17 C       -0.4450    -1.6880     0.0440 C.2   1 <1>  -0.1500 
 18 H       -1.3000    -2.3520     0.0540 H     1 <1>   0.1500 
 19 C        0.8760    -2.0780     0.0290 C.2   1 <1>  -0.3020 
 20 H        1.2800    -3.0780     0.0260 H     1 <1>   0.1500 
 21 C        3.8540    -2.1360    -0.0010 C.ar  1 <1>  -0.1500 
 22 H        3.3630    -3.1030     0.0090 H     1 <1>   0.1500 
@<TRIPOS>BOND
  1   1   2  1   
  2   2   3  2   
  3   2   4  1   
  4   4   5  ar  
  5   4  21  ar  
  6   5   6  1   
  7   5   7  ar  
  8   7   8  1   
  9   7   9  ar  
 10   9  10  1   
 11   9  11  ar  
 12  11  12  1   
 13  11  21  ar  
 14  12  13  1   
 15  12  19  1   
 16  13  14  1   
 17  13  15  2   
 18  15  16  1   
 19  15  17  1   
 20  17  18  1   
 21  17  19  2   
 22  19  20  1   
 23  21  22  1   
@<TRIPOS>SUBSTRUCTURE
  1 ****  11 GROUP 4 **** **** 0

# MOE 2022.02 (io_trps.svl 2020.11)

@<TRIPOS>MOLECULE
ACT043
14 13 1 0 0 
SMALL
USER_CHARGES


@<TRIPOS>ATOM
  1 H        4.0830    -1.1650     0.8030 H     1 <1>   0.0600 
  2 C        4.3380    -0.1060     0.6340 C.2   1 <1>   0.4490 
  3 O        5.4940     0.2830     0.7760 O.2   1 <1>  -0.5700 
  4 C        3.1860     0.8260     0.3310 C.3   1 <1>   0.3610 
  5 H        3.0000     1.4450     1.2130 H     1 <1>   0.0000 
  6 H        3.4470     1.4580    -0.5230 H     1 <1>   0.0000 
  7 N        1.9660     0.1040     0.0180 N.am  1 <1>  -0.7300 
  8 H        1.9670    -0.9070    -0.0680 H     1 <1>   0.3700 
  9 C        0.7360     0.6550    -0.1970 C.2   1 <1>   0.5690 
 10 O       -0.2200    -0.0740    -0.4470 O.2   1 <1>  -0.5700 
 11 C        0.6070     2.1510    -0.1080 C.3   1 <1>   0.0610 
 12 H        1.3030     2.6330    -0.8000 H     1 <1>   0.0000 
 13 H       -0.4100     2.4460    -0.3780 H     1 <1>   0.0000 
 14 H        0.8100     2.4820     0.9140 H     1 <1>   0.0000 
@<TRIPOS>BOND
  1   1   2  1   
  2   2   3  2   
  3   2   4  1   
  4   4   5  1   
  5   4   6  1   
  6   4   7  1   
  7   7   8  1   
  8   7   9  am  
  9   9  10  2   
 10   9  11  1   
 11  11  12  1   
 12  11  13  1   
 13  11  14  1   
@<TRIPOS>SUBSTRUCTURE
  1 ****   7 GROUP 4 **** **** 0

# MOE 2022.02 (io_trps.svl 2020.11)

@<TRIPOS>MOLECULE
ACT044
9 8 1 0 0 
SMALL
USER_CHARGES


@<TRIPOS>ATOM
  1 H        1.6020    -0.9940     0.9740 H     1 <1>   0.0600 
  2 C        1.4380    -0.3410     0.1000 C.2   1 <1>   0.4490 
  3 O        2.3010    -0.2160    -0.7650 O.2   1 <1>  -0.5700 
  4 C        0.1170     0.3950     0.0730 C.3   1 <1>   0.3310 
  5 H        0.0640     1.0180    -0.8250 H     1 <1>   0.0000 
  6 H        0.0640     1.0370     0.9560 H     1 <1>   0.0000 
  7 N       -0.9800    -0.5750     0.0860 N.3   1 <1>  -0.9900 
  8 H       -1.8660    -0.0700     0.0640 H     1 <1>   0.3600 
  9 H       -0.9540    -1.1150    -0.7820 H     1 <1>   0.3600 
@<TRIPOS>BOND
  1   1   2  1   
  2   2   3  2   
  3   2   4  1   
  4   4   5  1   
  5   4   6  1   
  6   4   7  1   
  7   7   8  1   
  8   7   9  1   
@<TRIPOS>SUBSTRUCTURE
  1 ****   2 GROUP 4 **** **** 0

# MOE 2022.02 (io_trps.svl 2020.11)

@<TRIPOS>MOLECULE
ACT045
16 16 1 0 0 
SMALL
USER_CHARGES


@<TRIPOS>ATOM
  1 H       -2.8620     2.4160    -0.3750 H     1 <1>   0.3600 
  2 N       -2.0680     2.0040     0.1120 N.3   1 <1>  -0.9000 
  3 C       -1.9990     0.5690    -0.2090 C.3   1 <1>   0.2700 
  4 H       -2.0450     0.4340    -1.2970 H     1 <1>   0.0000 
  5 H       -2.8790     0.0730     0.2140 H     1 <1>   0.0000 
  6 C       -0.7250    -0.1050     0.3430 C.3   1 <1>   0.2700 
  7 H       -0.7030    -1.1500     0.0160 H     1 <1>   0.0000 
  8 H       -0.7580    -0.1120     1.4400 H     1 <1>   0.0000 
  9 N        0.5100     0.5560    -0.1080 N.3   1 <1>  -0.9000 
 10 H        1.3050     0.1430     0.3770 H     1 <1>   0.3600 
 11 C        0.4410     1.9900     0.2140 C.3   1 <1>   0.2700 
 12 H        0.4870     2.1240     1.3020 H     1 <1>   0.0000 
 13 H        1.3210     2.4870    -0.2090 H     1 <1>   0.0000 
 14 C       -0.8320     2.6650    -0.3380 C.3   1 <1>   0.2700 
 15 H       -0.8550     3.7100    -0.0090 H     1 <1>   0.0000 
 16 H       -0.8000     2.6730    -1.4350 H     1 <1>   0.0000 
@<TRIPOS>BOND
  1   1   2  1   
  2   2   3  1   
  3   2  14  1   
  4   3   4  1   
  5   3   5  1   
  6   3   6  1   
  7   6   7  1   
  8   6   8  1   
  9   6   9  1   
 10   9  10  1   
 11   9  11  1   
 12  11  12  1   
 13  11  13  1   
 14  11  14  1   
 15  14  15  1   
 16  14  16  1   
@<TRIPOS>SUBSTRUCTURE
  1 ****   6 GROUP 4 **** **** 0

# MOE 2022.02 (io_trps.svl 2020.11)

@<TRIPOS>MOLECULE
ACT046
20 19 1 0 0 
SMALL
USER_CHARGES


@<TRIPOS>ATOM
  1 H       -0.7020    -1.1720    -0.2160 H     1 <1>   0.5000 
  2 O        0.0300    -1.8230    -0.1670 O.3   1 <1>  -0.6500 
  3 C        1.1440    -1.0650    -0.1830 C.2   1 <1>   0.6590 
  4 O        1.0670     0.1500    -0.2520 O.2   1 <1>  -0.5700 
  5 C        2.3920    -1.9040    -0.1140 C.3   1 <1>   0.0610 
  6 H        2.3380    -2.5210     0.7900 H     1 <1>   0.0000 
  7 H        2.4140    -2.5570    -0.9930 H     1 <1>   0.0000 
  8 C        3.6520    -1.0410    -0.0740 C.3   1 <1>   0.0000 
  9 H        3.6980    -0.4140    -0.9740 H     1 <1>   0.0000 
 10 H        3.6050    -0.3580     0.7830 H     1 <1>   0.0000 
 11 C        4.9130    -1.9010     0.0200 C.3   1 <1>   0.0000 
 12 H        4.8670    -2.5230     0.9220 H     1 <1>   0.0000 
 13 H        4.9610    -2.5800    -0.8390 H     1 <1>   0.0000 
 14 C        6.1730    -1.0370     0.0600 C.3   1 <1>   0.0000 
 15 H        6.2290    -0.4170    -0.8430 H     1 <1>   0.0000 
 16 H        6.1310    -0.3560     0.9180 H     1 <1>   0.0000 
 17 C        7.4300    -1.8870     0.1610 C.3   1 <1>   0.0000 
 18 H        7.4210    -2.4930     1.0720 H     1 <1>   0.0000 
 19 H        7.5190    -2.5590    -0.6990 H     1 <1>   0.0000 
 20 H        8.3180    -1.2490     0.1860 H     1 <1>   0.0000 
@<TRIPOS>BOND
  1   1   2  1   
  2   2   3  1   
  3   3   4  2   
  4   3   5  1   
  5   5   6  1   
  6   5   7  1   
  7   5   8  1   
  8   8   9  1   
  9   8  10  1   
 10   8  11  1   
 11  11  12  1   
 12  11  13  1   
 13  11  14  1   
 14  14  15  1   
 15  14  16  1   
 16  14  17  1   
 17  17  18  1   
 18  17  19  1   
 19  17  20  1   
@<TRIPOS>SUBSTRUCTURE
  1 ****   8 GROUP 4 **** **** 0

# MOE 2022.02 (io_trps.svl 2020.11)

@<TRIPOS>MOLECULE
ACT047
22 22 1 0 0 
SMALL
USER_CHARGES


@<TRIPOS>ATOM
  1 H        9.8390    -1.0970     1.4700 H     1 <1>   0.1500 
  2 C        9.8780    -2.0510     0.9550 C.2   1 <1>  -0.3000 
  3 H       10.6900    -2.7260     1.2100 H     1 <1>   0.1500 
  4 C        8.9620    -2.3980     0.0410 C.2   1 <1>  -0.2880 
  5 H        9.0430    -3.3670    -0.4470 H     1 <1>   0.1500 
  6 C        7.8090    -1.5390    -0.3770 C.3   1 <1>   0.4180 
  7 H        7.8920    -1.3250    -1.4490 H     1 <1>   0.0000 
  8 H        7.7900    -0.5970     0.1850 H     1 <1>   0.0000 
  9 O        6.6130    -2.2800    -0.1210 O.3   1 <1>  -0.4300 
 10 C        5.4830    -1.6180    -0.4700 C.2   1 <1>   0.6340 
 11 O        5.4150    -0.5170    -0.9860 O.2   1 <1>  -0.5700 
 12 C        4.3230    -2.4620    -0.1220 C.ar  1 <1>   0.0860 
 13 C        4.3090    -3.8000    -0.5480 C.ar  1 <1>  -0.1500 
 14 H        5.1460    -4.2080    -1.1120 H     1 <1>   0.1500 
 15 C        3.2170    -4.6180    -0.2570 C.ar  1 <1>  -0.1500 
 16 H        3.2080    -5.6550    -0.5870 H     1 <1>   0.1500 
 17 C        2.1350    -4.1050     0.4570 C.ar  1 <1>  -0.1500 
 18 H        1.2830    -4.7420     0.6860 H     1 <1>   0.1500 
 19 C        2.1460    -2.7750     0.8830 C.ar  1 <1>  -0.1500 
 20 H        1.2980    -2.3890     1.4450 H     1 <1>   0.1500 
 21 C        3.2370    -1.9480     0.5950 C.ar  1 <1>   0.1770 
 22 CL       3.1910    -0.3310     1.2010 Cl    1 <1>  -0.1770 
@<TRIPOS>BOND
  1   1   2  1   
  2   2   3  1   
  3   2   4  2   
  4   4   5  1   
  5   4   6  1   
  6   6   7  1   
  7   6   8  1   
  8   6   9  1   
  9   9  10  1   
 10  10  11  2   
 11  10  12  1   
 12  12  13  ar  
 13  12  21  ar  
 14  13  14  1   
 15  13  15  ar  
 16  15  16  1   
 17  15  17  ar  
 18  17  18  1   
 19  17  19  ar  
 20  19  20  1   
 21  19  21  ar  
 22  21  22  1   
@<TRIPOS>SUBSTRUCTURE
  1 ****  12 GROUP 4 **** **** 0

# MOE 2022.02 (io_trps.svl 2020.11)

@<TRIPOS>MOLECULE
ACT048
18 18 1 0 0 
SMALL
USER_CHARGES


@<TRIPOS>ATOM
  1 H        0.4500     3.5140     0.3190 H     1 <1>   0.1500 
  2 C       -0.0620     2.5600     0.2060 C.ar  1 <1>  -0.1500 
  3 C       -1.4570     2.5280     0.2360 C.ar  1 <1>  -0.1500 
  4 H       -2.0120     3.4550     0.3680 H     1 <1>   0.1500 
  5 C       -2.1160     1.3050     0.1030 C.ar  1 <1>  -0.0090 
  6 S       -3.8940     1.2320     0.1160 S.o2  1 <1>   1.2620 
  7 H       -4.3050     0.9110    -1.1030 H     1 <1>   0.0470 
  8 O       -4.3640     2.5770     0.4020 O.2   1 <1>  -0.6500 
  9 O       -4.2360     0.1470     1.0190 O.2   1 <1>  -0.6500 
 10 C       -1.3990     0.1150    -0.0430 C.ar  1 <1>  -0.1500 
 11 H       -1.9110    -0.8410    -0.1180 H     1 <1>   0.1500 
 12 C       -0.0040     0.1560    -0.0710 C.ar  1 <1>  -0.1500 
 13 H        0.5540    -0.7730    -0.1720 H     1 <1>   0.1500 
 14 C        0.6740     1.3780     0.0380 C.ar  1 <1>  -0.1440 
 15 C        2.1740     1.4160     0.0440 C.3   1 <1>   0.1440 
 16 H        2.5460     1.3460     1.0710 H     1 <1>   0.0000 
 17 H        2.5890     0.5870    -0.5380 H     1 <1>   0.0000 
 18 H        2.5420     2.3440    -0.4050 H     1 <1>   0.0000 
@<TRIPOS>BOND
  1   1   2  1   
  2   2   3  ar  
  3   2  14  ar  
  4   3   4  1   
  5   3   5  ar  
  6   5   6  1   
  7   5  10  ar  
  8   6   7  1   
  9   6   8  2   
 10   6   9  2   
 11  10  11  1   
 12  10  12  ar  
 13  12  13  1   
 14  12  14  ar  
 15  14  15  1   
 16  15  16  1   
 17  15  17  1   
 18  15  18  1   
@<TRIPOS>SUBSTRUCTURE
  1 ****   5 GROUP 4 **** **** 0

# MOE 2022.02 (io_trps.svl 2020.11)

@<TRIPOS>MOLECULE
ACT049
19 18 1 0 0 
SMALL
USER_CHARGES


@<TRIPOS>ATOM
  1 H       -0.1830     2.2050     0.5140 H     1 <1>   0.0600 
  2 C       -0.0800     1.3150    -0.1310 C.2   1 <1>   0.4490 
  3 O       -0.9680     1.0050    -0.9180 O.2   1 <1>  -0.5700 
  4 C        1.1710     0.5010     0.0660 C.3   1 <1>   0.0610 
  5 H        1.1380     0.0720     1.0730 H     1 <1>   0.0000 
  6 H        1.1760    -0.3190    -0.6600 H     1 <1>   0.0000 
  7 C        2.4040     1.3820    -0.1060 C.3   1 <1>   0.0000 
  8 H        2.3860     1.8510    -1.0980 H     1 <1>   0.0000 
  9 H        2.3800     2.1990     0.6260 H     1 <1>   0.0000 
 10 C        3.6910     0.5740     0.0620 C.3   1 <1>   0.0000 
 11 H        3.7080     0.1120     1.0570 H     1 <1>   0.0000 
 12 H        3.7130    -0.2390    -0.6730 H     1 <1>   0.0000 
 13 C        4.9290     1.4550    -0.1120 C.3   1 <1>   0.0000 
 14 H        4.9170     1.9200    -1.1050 H     1 <1>   0.0000 
 15 H        4.9160     2.2650     0.6260 H     1 <1>   0.0000 
 16 C        6.2110     0.6540     0.0480 C.3   1 <1>   0.0000 
 17 H        6.2690    -0.1460    -0.6970 H     1 <1>   0.0000 
 18 H        7.0830     1.3030    -0.0830 H     1 <1>   0.0000 
 19 H        6.2700     0.2020     1.0430 H     1 <1>   0.0000 
@<TRIPOS>BOND
  1   1   2  1   
  2   2   3  2   
  3   2   4  1   
  4   4   5  1   
  5   4   6  1   
  6   4   7  1   
  7   7   8  1   
  8   7   9  1   
  9   7  10  1   
 10  10  11  1   
 11  10  12  1   
 12  10  13  1   
 13  13  14  1   
 14  13  15  1   
 15  13  16  1   
 16  16  17  1   
 17  16  18  1   
 18  16  19  1   
@<TRIPOS>SUBSTRUCTURE
  1 ****   7 GROUP 4 **** **** 0

# MOE 2022.02 (io_trps.svl 2020.11)

@<TRIPOS>MOLECULE
ACT050
12 12 1 0 0 
SMALL
USER_CHARGES


@<TRIPOS>ATOM
  1 H        1.2800     2.9760     0.0520 H     1 <1>   0.1500 
  2 C        0.3800     2.3790     0.0840 C.2   1 <1>  -0.1500 
  3 C        0.2740     1.0750     0.5010 C.2   1 <1>   0.1980 
  4 BR       1.7130     0.0240     1.1230 Br    1 <1>  -0.0580 
  5 O       -1.0030     0.6320     0.4110 O.3   1 <1>  -0.2800 
  6 C       -1.7400     1.6710    -0.0760 C.2   1 <1>  -0.0400 
  7 C       -3.1820     1.4180    -0.2590 C.3   1 <1>   0.1800 
  8 H       -3.6740     2.2740    -0.7310 H     1 <1>   0.0000 
  9 H       -3.6640     1.2370     0.7070 H     1 <1>   0.0000 
 10 H       -3.3400     0.5410    -0.8940 H     1 <1>   0.0000 
 11 C       -0.9300     2.7680    -0.2920 C.2   1 <1>  -0.1500 
 12 H       -1.2470     3.7290    -0.6730 H     1 <1>   0.1500 
@<TRIPOS>BOND
  1   1   2  1   
  2   2   3  2   
  3   2  11  1   
  4   3   4  1   
  5   3   5  1   
  6   5   6  1   
  7   6   7  1   
  8   6  11  2   
  9   7   8  1   
 10   7   9  1   
 11   7  10  1   
 12  11  12  1   
@<TRIPOS>SUBSTRUCTURE
  1 ****   5 GROUP 4 **** **** 0

# MOE 2022.02 (io_trps.svl 2020.11)

@<TRIPOS>MOLECULE
ACT051
18 18 1 0 0 
SMALL
USER_CHARGES


@<TRIPOS>ATOM
  1 H        7.4240     3.1920     0.0180 H     1 <1>   0.0600 
  2 C        7.5670     2.0990    -0.0130 C.2   1 <1>   0.4960 
  3 O        8.6800     1.5890    -0.0380 O.2   1 <1>  -0.5700 
  4 C        6.3440     1.2720    -0.0210 C.2   1 <1>  -0.1360 
  5 H        6.5100     0.2040    -0.0540 H     1 <1>   0.1500 
  6 C        5.1390     1.8590     0.0090 C.2   1 <1>  -0.1780 
  7 H        5.0770     2.9460     0.0400 H     1 <1>   0.1500 
  8 C        3.8390     1.1620     0.0050 C.ar  1 <1>   0.0280 
  9 C        2.6680     1.9390     0.0070 C.ar  1 <1>  -0.1500 
 10 H        2.7230     3.0260     0.0090 H     1 <1>   0.1500 
 11 C        1.4040     1.3400     0.0070 C.ar  1 <1>  -0.1500 
 12 H        0.5150     1.9650     0.0080 H     1 <1>   0.1500 
 13 C        1.2980    -0.0470     0.0040 C.ar  1 <1>   0.1110 
 14 BR      -0.4080    -0.8600     0.0030 Br    1 <1>  -0.1110 
 15 C        2.4430    -0.8370     0.0020 C.ar  1 <1>  -0.1500 
 16 H        2.3670    -1.9220     0.0010 H     1 <1>   0.1500 
 17 C        3.7060    -0.2350     0.0040 C.ar  1 <1>  -0.1500 
 18 H        4.5760    -0.8860     0.0050 H     1 <1>   0.1500 
@<TRIPOS>BOND
  1   1   2  1   
  2   2   3  2   
  3   2   4  1   
  4   4   5  1   
  5   4   6  2   
  6   6   7  1   
  7   6   8  1   
  8   8   9  ar  
  9   8  17  ar  
 10   9  10  1   
 11   9  11  ar  
 12  11  12  1   
 13  11  13  ar  
 14  13  14  1   
 15  13  15  ar  
 16  15  16  1   
 17  15  17  ar  
 18  17  18  1   
@<TRIPOS>SUBSTRUCTURE
  1 ****   8 GROUP 4 **** **** 0

# MOE 2022.02 (io_trps.svl 2020.11)

@<TRIPOS>MOLECULE
ACT052
10 9 1 0 0 
SMALL
USER_CHARGES


@<TRIPOS>ATOM
  1 H       -0.5220    -0.5020     0.7090 H     1 <1>   0.4000 
  2 O        0.2740    -1.0150     0.4910 O.3   1 <1>  -0.6800 
  3 C        1.1770    -0.1190    -0.1340 C.3   1 <1>   0.4180 
  4 H        1.3430     0.7360     0.5280 H     1 <1>   0.0000 
  5 H        0.7320     0.2330    -1.0690 H     1 <1>   0.0000 
  6 C        2.4350    -0.8670    -0.4140 C.2   1 <1>  -0.2880 
  7 H        2.3290    -1.7850    -0.9880 H     1 <1>   0.1500 
  8 C        3.6540    -0.4920    -0.0060 C.2   1 <1>  -0.3000 
  9 H        4.5260    -1.0950    -0.2420 H     1 <1>   0.1500 
 10 H        3.8100     0.4100     0.5770 H     1 <1>   0.1500 
@<TRIPOS>BOND
  1   1   2  1   
  2   2   3  1   
  3   3   4  1   
  4   3   5  1   
  5   3   6  1   
  6   6   7  1   
  7   6   8  2   
  8   8   9  1   
  9   8  10  1   
@<TRIPOS>SUBSTRUCTURE
  1 ****   6 GROUP 4 **** **** 0

# MOE 2022.02 (io_trps.svl 2020.11)

@<TRIPOS>MOLECULE
ACT053
8 7 1 0 0 
SMALL
USER_CHARGES


@<TRIPOS>ATOM
  1 H        0.1120    -1.5840     0.8100 H     1 <1>   0.0600 
  2 C        0.0210    -0.6730     0.1920 C.2   1 <1>   0.4490 
  3 O       -1.0640    -0.3450    -0.2790 O.2   1 <1>  -0.5700 
  4 C        1.2560     0.1670     0.0640 C.3   1 <1>   0.2610 
  5 H        1.4370     0.6500     1.0290 H     1 <1>   0.0000 
  6 H        1.0870     0.9440    -0.6870 H     1 <1>   0.0000 
  7 C        2.3850    -0.6800    -0.3080 C.1   1 <1>   0.3570 
  8 N        3.2810    -1.3630    -0.5860 N.1   1 <1>  -0.5570 
@<TRIPOS>BOND
  1   1   2  1   
  2   2   3  2   
  3   2   4  1   
  4   4   5  1   
  5   4   6  1   
  6   4   7  1   
  7   7   8  3   
@<TRIPOS>SUBSTRUCTURE
  1 ****   4 GROUP 4 **** **** 0

# MOE 2022.02 (io_trps.svl 2020.11)

@<TRIPOS>MOLECULE
ACT054
18 18 1 0 0 
SMALL
USER_CHARGES


@<TRIPOS>ATOM
  1 H        7.2120     2.8610     1.1300 H     1 <1>   0.0600 
  2 C        7.4130     2.0750     0.3810 C.2   1 <1>   0.4490 
  3 O        8.5140     1.9910    -0.1580 O.2   1 <1>  -0.5700 
  4 C        6.3020     1.0810     0.1660 C.3   1 <1>   0.3410 
  5 H        6.2700     0.4250     1.0430 H     1 <1>   0.0000 
  6 H        6.5060     0.5200    -0.7520 H     1 <1>   0.0000 
  7 O        5.0990     1.8330     0.0520 O.3   1 <1>  -0.3630 
  8 C        3.9440     1.1250    -0.1340 C.ar  1 <1>   0.0820 
  9 C        2.7890     1.9080    -0.2230 C.ar  1 <1>  -0.1500 
 10 H        2.8630     2.9910    -0.1470 H     1 <1>   0.1500 
 11 C        1.5390     1.3150    -0.4100 C.ar  1 <1>  -0.1500 
 12 H        0.6500     1.9370    -0.4780 H     1 <1>   0.1500 
 13 C        1.4430    -0.0700    -0.5100 C.ar  1 <1>   0.1770 
 14 CL      -0.0930    -0.8090    -0.7410 Cl    1 <1>  -0.1770 
 15 C        2.5870    -0.8610    -0.4240 C.ar  1 <1>  -0.1500 
 16 H        2.5130    -1.9420    -0.5030 H     1 <1>   0.1500 
 17 C        3.8390    -0.2640    -0.2360 C.ar  1 <1>  -0.1500 
 18 H        4.7060    -0.9140    -0.1770 H     1 <1>   0.1500 
@<TRIPOS>BOND
  1   1   2  1   
  2   2   3  2   
  3   2   4  1   
  4   4   5  1   
  5   4   6  1   
  6   4   7  1   
  7   7   8  1   
  8   8   9  ar  
  9   8  17  ar  
 10   9  10  1   
 11   9  11  ar  
 12  11  12  1   
 13  11  13  ar  
 14  13  14  1   
 15  13  15  ar  
 16  15  16  1   
 17  15  17  ar  
 18  17  18  1   
@<TRIPOS>SUBSTRUCTURE
  1 ****   8 GROUP 4 **** **** 0

# MOE 2022.02 (io_trps.svl 2020.11)

@<TRIPOS>MOLECULE
ACT055
30 31 1 0 0 
SMALL
USER_CHARGES


@<TRIPOS>ATOM
  1 H       10.9080    -0.4070    -0.0300 H     1 <1>   0.0600 
  2 C       10.3180    -1.3430    -0.0490 C.2   1 <1>   0.3040 
  3 N       10.8840    -2.5040     0.0670 N.2   1 <1>  -0.5030 
  4 N       12.2280    -2.4330     0.1990 N.pl3 1 <1>  -0.5690 
  5 H       12.6060    -3.3560     0.3150 H     1 <1>   0.3110 
  6 H       12.6560    -1.9970    -0.5970 H     1 <1>   0.3110 
  7 C        8.8570    -1.1990    -0.2080 C.ar  1 <1>   0.0860 
  8 C        8.0240    -2.3240    -0.2300 C.ar  1 <1>  -0.1500 
  9 H        8.4430    -3.3230    -0.1290 H     1 <1>   0.1500 
 10 C        6.6460    -2.1650    -0.3780 C.ar  1 <1>  -0.1500 
 11 H        5.9950    -3.0340    -0.3990 H     1 <1>   0.1500 
 12 C        6.1190    -0.8800    -0.4900 C.ar  1 <1>   0.0820 
 13 O        4.7450    -0.7320    -0.6760 O.3   1 <1>  -0.2320 
 14 C        4.0850    -0.4020     0.4900 C.2   1 <1>   0.6340 
 15 O        4.5360    -0.3030     1.6200 O.2   1 <1>  -0.5700 
 16 C        2.6500    -0.2830     0.1860 C.ar  1 <1>   0.0860 
 17 C        1.7730    -1.1010     0.9130 C.ar  1 <1>  -0.1500 
 18 H        2.1590    -1.7860     1.6660 H     1 <1>   0.1500 
 19 C        0.4000    -1.0390     0.6730 C.ar  1 <1>  -0.1500 
 20 H       -0.2800    -1.6770     1.2350 H     1 <1>   0.1500 
 21 C       -0.1000    -0.1560    -0.2820 C.ar  1 <1>  -0.1500 
 22 H       -1.1710    -0.1050    -0.4680 H     1 <1>   0.1500 
 23 C        0.7700     0.6740    -0.9930 C.ar  1 <1>  -0.1500 
 24 H        0.3640     1.3710    -1.7230 H     1 <1>   0.1500 
 25 C        2.1480     0.6190    -0.7580 C.ar  1 <1>   0.1770 
 26 CL       3.1540     1.7220    -1.6250 Cl    1 <1>  -0.1770 
 27 C        6.9410     0.2480    -0.4910 C.ar  1 <1>  -0.1500 
 28 H        6.5130     1.2400    -0.5990 H     1 <1>   0.1500 
 29 C        8.3190     0.0870    -0.3420 C.ar  1 <1>  -0.1500 
 30 H        8.9590     0.9650    -0.3290 H     1 <1>   0.1500 
@<TRIPOS>BOND
  1   1   2  1   
  2   2   3  2   
  3   2   7  1   
  4   3   4  1   
  5   4   5  1   
  6   4   6  1   
  7   7   8  ar  
  8   7  29  ar  
  9   8   9  1   
 10   8  10  ar  
 11  10  11  1   
 12  10  12  ar  
 13  12  13  1   
 14  12  27  ar  
 15  13  14  1   
 16  14  15  2   
 17  14  16  1   
 18  16  17  ar  
 19  16  25  ar  
 20  17  18  1   
 21  17  19  ar  
 22  19  20  1   
 23  19  21  ar  
 24  21  22  1   
 25  21  23  ar  
 26  23  24  1   
 27  23  25  ar  
 28  25  26  1   
 29  27  28  1   
 30  27  29  ar  
 31  29  30  1   
@<TRIPOS>SUBSTRUCTURE
  1 ****  12 GROUP 4 **** **** 0

# MOE 2022.02 (io_trps.svl 2020.11)

@<TRIPOS>MOLECULE
ACT056
27 27 1 0 0 
SMALL
USER_CHARGES


@<TRIPOS>ATOM
  1 H       -2.1560     2.7520     0.1730 H     1 <1>   0.4000 
  2 N       -1.1730     2.4640     0.0940 N.2   1 <1>  -0.8500 
  3 C       -0.4060     3.5030     0.1350 C.2   1 <1>   0.3040 
  4 H       -0.8510     4.5080     0.2410 H     1 <1>   0.0600 
  5 C        1.0620     3.4090     0.0440 C.ar  1 <1>   0.0860 
  6 C        1.6850     2.1680    -0.0870 C.ar  1 <1>  -0.1500 
  7 H        1.0910     1.2570    -0.1220 H     1 <1>   0.1500 
  8 C        3.0770     2.0930    -0.1730 C.ar  1 <1>  -0.1500 
  9 H        3.5230     1.1090    -0.2730 H     1 <1>   0.1500 
 10 C        3.8500     3.2590    -0.1280 C.ar  1 <1>   0.0820 
 11 O        5.2200     3.2870    -0.2040 O.3   1 <1>  -0.3630 
 12 C        5.9040     2.0480    -0.3600 C.3   1 <1>   0.4180 
 13 H        5.7020     1.3910     0.4950 H     1 <1>   0.0000 
 14 H        5.5940     1.5580    -1.2910 H     1 <1>   0.0000 
 15 C        7.3690     2.3530    -0.4530 C.2   1 <1>  -0.2880 
 16 H        7.6590     3.0640    -1.2240 H     1 <1>   0.1500 
 17 C        8.3130     1.8270     0.3380 C.2   1 <1>  -0.3000 
 18 H        8.0710     1.1230     1.1280 H     1 <1>   0.1500 
 19 H        9.3550     2.1050     0.2150 H     1 <1>   0.1500 
 20 C        3.2150     4.5140     0.0060 C.ar  1 <1>   0.0820 
 21 O        4.0480     5.6060     0.0400 O.3   1 <1>  -0.3630 
 22 C        3.4590     6.8880     0.1970 C.3   1 <1>   0.2800 
 23 H        4.2660     7.6270     0.2160 H     1 <1>   0.0000 
 24 H        2.8070     7.1290    -0.6500 H     1 <1>   0.0000 
 25 H        2.9180     6.9620     1.1460 H     1 <1>   0.0000 
 26 C        1.8200     4.5820     0.0910 C.ar  1 <1>  -0.1500 
 27 H        1.3090     5.5330     0.1930 H     1 <1>   0.1500 
@<TRIPOS>BOND
  1   1   2  1   
  2   2   3  2   
  3   3   4  1   
  4   3   5  1   
  5   5   6  ar  
  6   5  26  ar  
  7   6   7  1   
  8   6   8  ar  
  9   8   9  1   
 10   8  10  ar  
 11  10  11  1   
 12  10  20  ar  
 13  11  12  1   
 14  12  13  1   
 15  12  14  1   
 16  12  15  1   
 17  15  16  1   
 18  15  17  2   
 19  17  18  1   
 20  17  19  1   
 21  20  21  1   
 22  20  26  ar  
 23  21  22  1   
 24  22  23  1   
 25  22  24  1   
 26  22  25  1   
 27  26  27  1   
@<TRIPOS>SUBSTRUCTURE
  1 ****  10 GROUP 4 **** **** 0

# MOE 2022.02 (io_trps.svl 2020.11)

@<TRIPOS>MOLECULE
ACT057
17 17 1 0 0 
SMALL
USER_CHARGES


@<TRIPOS>ATOM
  1 H        1.0630     2.1200     0.0030 H     1 <1>   0.4500 
  2 O        0.8830     1.1640     0.0020 O.3   1 <1>  -0.5320 
  3 C        2.0690     0.4850     0.0010 C.ar  1 <1>   0.0820 
  4 C        3.2710     1.1880     0.0000 C.ar  1 <1>  -0.1500 
  5 H        3.2930     2.2740     0.0010 H     1 <1>   0.1500 
  6 C        4.4830     0.4890    -0.0010 C.ar  1 <1>  -0.1500 
  7 H        5.4150     1.0480    -0.0010 H     1 <1>   0.1500 
  8 C        4.5070    -0.9090    -0.0010 C.ar  1 <1>   0.1000 
  9 N        5.7080    -1.5910    -0.0030 N.pl3 1 <1>  -0.9000 
 10 H        5.7250    -2.6020    -0.0030 H     1 <1>   0.4000 
 11 H        6.5890    -1.0960    -0.0030 H     1 <1>   0.4000 
 12 C        3.2960    -1.6030    -0.0010 C.ar  1 <1>  -0.1500 
 13 H        3.2920    -2.6910    -0.0010 H     1 <1>   0.1500 
 14 C        2.0780    -0.9100     0.0010 C.ar  1 <1>   0.0860 
 15 C        0.8120    -1.6700     0.0010 C.2   1 <1>   0.4240 
 16 H       -0.1230    -1.0860     0.0020 H     1 <1>   0.0600 
 17 O        0.7890    -2.8960     0.0010 O.2   1 <1>  -0.5700 
@<TRIPOS>BOND
  1   1   2  1   
  2   2   3  1   
  3   3   4  ar  
  4   3  14  ar  
  5   4   5  1   
  6   4   6  ar  
  7   6   7  1   
  8   6   8  ar  
  9   8   9  1   
 10   8  12  ar  
 11   9  10  1   
 12   9  11  1   
 13  12  13  1   
 14  12  14  ar  
 15  14  15  1   
 16  15  16  1   
 17  15  17  2   
@<TRIPOS>SUBSTRUCTURE
  1 ****  14 GROUP 4 **** **** 0

# MOE 2022.02 (io_trps.svl 2020.11)

@<TRIPOS>MOLECULE
ACT058
26 26 1 0 0 
SMALL
USER_CHARGES


@<TRIPOS>ATOM
  1 H       -0.8560    -3.6290     1.0010 H     1 <1>   0.5000 
  2 O       -0.1620    -2.9470     0.9040 O.3   1 <1>  -0.6500 
  3 C        0.8030    -3.5460     0.1870 C.2   1 <1>   0.6340 
  4 O        0.7350    -4.7240    -0.1190 O.2   1 <1>  -0.5700 
  5 C        1.9670    -2.6740    -0.0610 C.ar  1 <1>   0.0860 
  6 C        3.2360    -3.2650     0.0560 C.ar  1 <1>  -0.1500 
  7 H        3.2990    -4.3190     0.3180 H     1 <1>   0.1500 
  8 C        4.3980    -2.5130    -0.1540 C.ar  1 <1>   0.1170 
  9 N        5.6310    -3.1820    -0.0090 N.am  1 <1>  -0.5470 
 10 H        5.5770    -4.1650     0.2330 H     1 <1>   0.3700 
 11 C        6.9030    -2.6520    -0.1590 C.2   1 <1>   0.5690 
 12 O        7.1790    -1.4930    -0.4460 O.2   1 <1>  -0.5700 
 13 C        7.9730    -3.7060     0.0820 C.3   1 <1>   0.0610 
 14 H        7.8140    -4.5300    -0.6240 H     1 <1>   0.0000 
 15 H        7.8490    -4.1000     1.0970 H     1 <1>   0.0000 
 16 C        9.3810    -3.1620    -0.0820 C.3   1 <1>   0.0000 
 17 H        9.5370    -2.7740    -1.0940 H     1 <1>   0.0000 
 18 H       10.1180    -3.9510     0.0990 H     1 <1>   0.0000 
 19 H        9.5720    -2.3470     0.6230 H     1 <1>   0.0000 
 20 C        4.2740    -1.1650    -0.4920 C.ar  1 <1>  -0.1500 
 21 H        5.1440    -0.5390    -0.6670 H     1 <1>   0.1500 
 22 C        3.0110    -0.5750    -0.6300 C.ar  1 <1>  -0.1500 
 23 H        2.9560     0.4730    -0.9130 H     1 <1>   0.1500 
 24 C        1.8580    -1.3300    -0.4220 C.ar  1 <1>   0.0820 
 25 O        0.6370    -0.7510    -0.6160 O.3   1 <1>  -0.5320 
 26 H        0.7510     0.2000    -0.7800 H     1 <1>   0.4500 
@<TRIPOS>BOND
  1   1   2  1   
  2   2   3  1   
  3   3   4  2   
  4   3   5  1   
  5   5   6  ar  
  6   5  24  ar  
  7   6   7  1   
  8   6   8  ar  
  9   8   9  1   
 10   8  20  ar  
 11   9  10  1   
 12   9  11  am  
 13  11  12  2   
 14  11  13  1   
 15  13  14  1   
 16  13  15  1   
 17  13  16  1   
 18  16  17  1   
 19  16  18  1   
 20  16  19  1   
 21  20  21  1   
 22  20  22  ar  
 23  22  23  1   
 24  22  24  ar  
 25  24  25  1   
 26  25  26  1   
@<TRIPOS>SUBSTRUCTURE
  1 ****   8 GROUP 4 **** **** 0

# MOE 2022.02 (io_trps.svl 2020.11)

@<TRIPOS>MOLECULE
ACT059
19 19 1 0 0 
SMALL
USER_CHARGES


@<TRIPOS>ATOM
  1 H        2.0380     1.6090     0.2040 H     1 <1>   0.0600 
  2 C        1.1220     1.0310     0.0190 C.2   1 <1>   0.4240 
  3 O        0.0550     1.6140    -0.1450 O.2   1 <1>  -0.5700 
  4 C        1.2170    -0.4460    -0.0040 C.ar  1 <1>   0.0860 
  5 C        0.0120    -1.1690    -0.0070 C.ar  1 <1>  -0.1500 
  6 H       -0.9430    -0.6450    -0.0200 H     1 <1>   0.1500 
  7 C        0.0210    -2.5630     0.0170 C.ar  1 <1>  -0.1500 
  8 H       -0.9170    -3.1130     0.0170 H     1 <1>   0.1500 
  9 C        1.2320    -3.2480     0.0470 C.ar  1 <1>  -0.1500 
 10 H        1.2430    -4.3360     0.0670 H     1 <1>   0.1500 
 11 C        2.4340    -2.5390     0.0430 C.ar  1 <1>  -0.1500 
 12 H        3.3720    -3.0940     0.0530 H     1 <1>   0.1500 
 13 C        2.4380    -1.1350     0.0110 C.ar  1 <1>   0.0860 
 14 C        3.7480    -0.4440    -0.0390 C.2   1 <1>   0.3040 
 15 H        3.7620     0.6260    -0.3050 H     1 <1>   0.0600 
 16 N        4.8580    -1.0710     0.2020 N.2   1 <1>  -0.5030 
 17 N        5.9510    -0.2820     0.1060 N.pl3 1 <1>  -0.5690 
 18 H        6.7810    -0.8370     0.2120 H     1 <1>   0.3110 
 19 H        5.9480     0.4380     0.8060 H     1 <1>   0.3110 
@<TRIPOS>BOND
  1   1   2  1   
  2   2   3  2   
  3   2   4  1   
  4   4   5  ar  
  5   4  13  ar  
  6   5   6  1   
  7   5   7  ar  
  8   7   8  1   
  9   7   9  ar  
 10   9  10  1   
 11   9  11  ar  
 12  11  12  1   
 13  11  13  ar  
 14  13  14  1   
 15  14  15  1   
 16  14  16  2   
 17  16  17  1   
 18  17  18  1   
 19  17  19  1   
@<TRIPOS>SUBSTRUCTURE
  1 ****  13 GROUP 4 **** **** 0

# MOE 2022.02 (io_trps.svl 2020.11)

@<TRIPOS>MOLECULE
ACT060
18 18 1 0 0 
SMALL
NO_CHARGES


@<TRIPOS>ATOM
  1 H       -1.9470     2.1780    -1.3410 H     1 <1>   0.0000 
  2 C       -1.9220     2.1520    -0.2450 C.3   1 <1>   0.0000 
  3 H       -2.8040     2.6990     0.1080 H     1 <1>   0.0000 
  4 C       -1.9930     0.7030     0.2300 C.3   1 <1>   0.0000 
  5 H       -2.1170     0.6820     1.3190 H     1 <1>   0.0000 
  6 H       -2.8760     0.2170    -0.2010 H     1 <1>   0.0000 
  7 C       -0.7390    -0.0770    -0.1540 C.3   1 <1>   0.0000 
  8 H       -0.6940    -0.1830    -1.2450 H     1 <1>   0.0000 
  9 H       -0.7920    -1.0900     0.2630 H     1 <1>   0.0000 
 10 C        0.5280     0.6150     0.3410 C.3   1 <1>   0.0000 
 11 H        0.5530     0.5900     1.4370 H     1 <1>   0.0000 
 12 H        1.4100     0.0680    -0.0120 H     1 <1>   0.0000 
 13 C        0.5990     2.0640    -0.1340 C.3   1 <1>   0.0000 
 14 H        1.4820     2.5500     0.2960 H     1 <1>   0.0000 
 15 H        0.7210     2.0850    -1.2240 H     1 <1>   0.0000 
 16 C       -0.6550     2.8450     0.2510 C.3   1 <1>   0.0000 
 17 H       -0.7000     2.9480     1.3420 H     1 <1>   0.0000 
 18 H       -0.6020     3.8570    -0.1650 H     1 <1>   0.0000 
@<TRIPOS>BOND
  1   1   2  1   
  2   2   3  1   
  3   2   4  1   
  4   2  16  1   
  5   4   5  1   
  6   4   6  1   
  7   4   7  1   
  8   7   8  1   
  9   7   9  1   
 10   7  10  1   
 11  10  11  1   
 12  10  12  1   
 13  10  13  1   
 14  13  14  1   
 15  13  15  1   
 16  13  16  1   
 17  16  17  1   
 18  16  18  1   
@<TRIPOS>SUBSTRUCTURE
  1 ****  13 GROUP 4 **** **** 0

# MOE 2022.02 (io_trps.svl 2020.11)

@<TRIPOS>MOLECULE
ACT061
12 11 1 0 0 
SMALL
USER_CHARGES


@<TRIPOS>ATOM
  1 H        3.3800    -0.3510    -0.5420 H     1 <1>   0.4000 
  2 O        2.7480     0.3510    -0.7710 O.3   1 <1>  -0.6800 
  3 C        1.6250     0.2170     0.0940 C.3   1 <1>   0.2800 
  4 H        1.9750     0.3390     1.1250 H     1 <1>   0.0000 
  5 C        1.0110    -1.1630    -0.0870 C.3   1 <1>   0.0000 
  6 H        0.7070    -1.3240    -1.1280 H     1 <1>   0.0000 
  7 H        0.1390    -1.3000     0.5590 H     1 <1>   0.0000 
  8 H        1.7450    -1.9420     0.1490 H     1 <1>   0.0000 
  9 C        0.6310     1.3180    -0.2390 C.3   1 <1>   0.0000 
 10 H        1.0990     2.3020    -0.1220 H     1 <1>   0.0000 
 11 H        0.3030     1.2490    -1.2820 H     1 <1>   0.0000 
 12 H       -0.2480     1.2710     0.4100 H     1 <1>   0.0000 
@<TRIPOS>BOND
  1   1   2  1   
  2   2   3  1   
  3   3   4  1   
  4   3   5  1   
  5   3   9  1   
  6   5   6  1   
  7   5   7  1   
  8   5   8  1   
  9   9  10  1   
 10   9  11  1   
 11   9  12  1   
@<TRIPOS>SUBSTRUCTURE
  1 ****   3 GROUP 4 **** **** 0

# MOE 2022.02 (io_trps.svl 2020.11)

@<TRIPOS>MOLECULE
ACT062
26 26 1 0 0 
SMALL
USER_CHARGES


@<TRIPOS>ATOM
  1 H        0.7280    -3.1930    -0.6300 H     1 <1>   0.0600 
  2 C        0.6000    -2.3530     0.0740 C.2   1 <1>   0.4960 
  3 O       -0.4710    -2.1660     0.6370 O.2   1 <1>  -0.5700 
  4 C        1.7890    -1.4910     0.2770 C.2   1 <1>   0.0790 
  5 C        1.6950    -0.4040     1.1880 C.1   1 <1>   0.4920 
  6 N        1.6460     0.5010     1.9140 N.1   1 <1>  -0.5570 
  7 C        2.8990    -1.8130    -0.4140 C.2   1 <1>  -0.1780 
  8 H        2.9120    -2.6790    -1.0740 H     1 <1>   0.1500 
  9 C        4.1880    -1.1080    -0.3570 C.ar  1 <1>   0.0280 
 10 C        4.3000     0.2590    -0.6290 C.ar  1 <1>  -0.1500 
 11 H        3.4270     0.8580    -0.8790 H     1 <1>   0.1500 
 12 C        5.5480     0.8830    -0.5870 C.ar  1 <1>  -0.1500 
 13 H        5.6270     1.9480    -0.7900 H     1 <1>   0.1500 
 14 C        6.6960     0.1460    -0.2850 C.ar  1 <1>  -0.1500 
 15 H        7.6460     0.6700    -0.2620 H     1 <1>   0.1500 
 16 C        6.6010    -1.2210    -0.0290 C.ar  1 <1>   0.0820 
 17 O        7.6400    -2.0590     0.2670 O.3   1 <1>  -0.3630 
 18 C        8.9420    -1.4790     0.3460 C.3   1 <1>   0.2800 
 19 H        9.2190    -1.0340    -0.6170 H     1 <1>   0.0000 
 20 H        8.9720    -0.7200     1.1360 H     1 <1>   0.0000 
 21 C        9.9270    -2.5840     0.6810 C.3   1 <1>   0.0000 
 22 H        9.9010    -3.3690    -0.0830 H     1 <1>   0.0000 
 23 H       10.9450    -2.1910     0.7490 H     1 <1>   0.0000 
 24 H        9.6660    -3.0580     1.6330 H     1 <1>   0.0000 
 25 C        5.3470    -1.8400    -0.0710 C.ar  1 <1>  -0.1500 
 26 H        5.2890    -2.9080     0.1320 H     1 <1>   0.1500 
@<TRIPOS>BOND
  1   1   2  1   
  2   2   3  2   
  3   2   4  1   
  4   4   5  1   
  5   4   7  2   
  6   5   6  3   
  7   7   8  1   
  8   7   9  1   
  9   9  10  ar  
 10   9  25  ar  
 11  10  11  1   
 12  10  12  ar  
 13  12  13  1   
 14  12  14  ar  
 15  14  15  1   
 16  14  16  ar  
 17  16  17  1   
 18  16  25  ar  
 19  17  18  1   
 20  18  19  1   
 21  18  20  1   
 22  18  21  1   
 23  21  22  1   
 24  21  23  1   
 25  21  24  1   
 26  25  26  1   
@<TRIPOS>SUBSTRUCTURE
  1 ****   9 GROUP 4 **** **** 0

# MOE 2022.02 (io_trps.svl 2020.11)

@<TRIPOS>MOLECULE
ACT063
23 23 1 0 0 
SMALL
USER_CHARGES


@<TRIPOS>ATOM
  1 H       -0.5970    -3.7920    -1.5160 H     1 <1>   0.5000 
  2 O       -0.0330    -3.1590    -1.0230 O.3   1 <1>  -0.6500 
  3 C        1.1870    -3.7210    -1.0430 C.2   1 <1>   0.6340 
  4 O        1.3870    -4.7880    -1.5940 O.2   1 <1>  -0.5700 
  5 C        2.2080    -2.9090    -0.3420 C.ar  1 <1>   0.0860 
  6 C        1.8940    -1.7040     0.2910 C.ar  1 <1>  -0.1500 
  7 H        0.8780    -1.3180     0.2870 H     1 <1>   0.1500 
  8 C        2.8970    -0.9850     0.9390 C.ar  1 <1>  -0.1500 
  9 H        2.6590    -0.0460     1.4340 H     1 <1>   0.1500 
 10 C        4.2110    -1.4630     0.9560 C.ar  1 <1>  -0.1500 
 11 H        4.9560    -0.8650     1.4730 H     1 <1>   0.1500 
 12 C        4.5390    -2.6660     0.3270 C.ar  1 <1>   0.1170 
 13 N        5.8380    -3.2190     0.2980 N.am  1 <1>  -0.5470 
 14 H        5.9200    -4.1020    -0.1940 H     1 <1>   0.3700 
 15 C        6.9920    -2.6860     0.8550 C.2   1 <1>   0.5690 
 16 O        7.0830    -1.6220     1.4590 O.2   1 <1>  -0.5700 
 17 C        8.2080    -3.5640     0.6660 C.3   1 <1>   0.2610 
 18 H        8.9370    -3.3230     1.4480 H     1 <1>   0.0000 
 19 H        7.9270    -4.6140     0.8010 H     1 <1>   0.0000 
 20 C        8.7810    -3.3470    -0.6600 C.1   1 <1>   0.3570 
 21 N        9.2260    -3.2180    -1.7240 N.1   1 <1>  -0.5570 
 22 C        3.5280    -3.3850    -0.3210 C.ar  1 <1>  -0.1500 
 23 H        3.7530    -4.3250    -0.8220 H     1 <1>   0.1500 
@<TRIPOS>BOND
  1   1   2  1   
  2   2   3  1   
  3   3   4  2   
  4   3   5  1   
  5   5   6  ar  
  6   5  22  ar  
  7   6   7  1   
  8   6   8  ar  
  9   8   9  1   
 10   8  10  ar  
 11  10  11  1   
 12  10  12  ar  
 13  12  13  1   
 14  12  22  ar  
 15  13  14  1   
 16  13  15  am  
 17  15  16  2   
 18  15  17  1   
 19  17  18  1   
 20  17  19  1   
 21  17  20  1   
 22  20  21  3   
 23  22  23  1   
@<TRIPOS>SUBSTRUCTURE
  1 ****  12 GROUP 4 **** **** 0

# MOE 2022.02 (io_trps.svl 2020.11)

@<TRIPOS>MOLECULE
ACT064
17 17 1 0 0 
SMALL
USER_CHARGES


@<TRIPOS>ATOM
  1 H        6.3410    -0.4230     0.0060 H     1 <1>   0.5000 
  2 O        5.3780    -0.2380     0.0060 O.3   1 <1>  -0.6500 
  3 C        4.8160    -1.4600     0.0010 C.2   1 <1>   0.6340 
  4 O        5.5000    -2.4670    -0.0010 O.2   1 <1>  -0.5700 
  5 C        3.3350    -1.4130     0.0000 C.ar  1 <1>   0.0860 
  6 C        2.6310    -0.2040     0.0010 C.ar  1 <1>  -0.1500 
  7 H        3.1560     0.7470     0.0020 H     1 <1>   0.1500 
  8 C        1.2370    -0.2160     0.0010 C.ar  1 <1>  -0.1500 
  9 H        0.6850     0.7200     0.0010 H     1 <1>   0.1500 
 10 C        0.5490    -1.4310     0.0000 C.ar  1 <1>  -0.1500 
 11 H       -0.5380    -1.4210    -0.0010 H     1 <1>   0.1500 
 12 C        1.2380    -2.6460    -0.0010 C.ar  1 <1>   0.1000 
 13 N        0.5510    -3.8450    -0.0020 N.pl3 1 <1>  -0.9000 
 14 H       -0.4590    -3.8620    -0.0020 H     1 <1>   0.4000 
 15 H        1.0480    -4.7250    -0.0030 H     1 <1>   0.4000 
 16 C        2.6350    -2.6280    -0.0010 C.ar  1 <1>  -0.1500 
 17 H        3.1880    -3.5640    -0.0010 H     1 <1>   0.1500 
@<TRIPOS>BOND
  1   1   2  1   
  2   2   3  1   
  3   3   4  2   
  4   3   5  1   
  5   5   6  ar  
  6   5  16  ar  
  7   6   7  1   
  8   6   8  ar  
  9   8   9  1   
 10   8  10  ar  
 11  10  11  1   
 12  10  12  ar  
 13  12  13  1   
 14  12  16  ar  
 15  13  14  1   
 16  13  15  1   
 17  16  17  1   
@<TRIPOS>SUBSTRUCTURE
  1 ****   5 GROUP 4 **** **** 0

# MOE 2022.02 (io_trps.svl 2020.11)

@<TRIPOS>MOLECULE
ACT065
35 37 1 0 0 
SMALL
USER_CHARGES


@<TRIPOS>ATOM
  1 H        0.0770    -0.3230     1.2420 H     1 <1>   0.1500 
  2 C       -0.3940     0.3900     0.5740 C.ar  1 <1>  -0.1500 
  3 C        0.3310     1.1030    -0.3750 C.ar  1 <1>   0.0820 
  4 O        1.6770     1.0170    -0.5950 O.3   1 <1>  -0.3630 
  5 C        2.4070     0.1240     0.2360 C.3   1 <1>   0.2800 
  6 H        2.0730    -0.9090     0.0940 H     1 <1>   0.0000 
  7 H        3.4590     0.1770    -0.0600 H     1 <1>   0.0000 
  8 H        2.3420     0.4200     1.2880 H     1 <1>   0.0000 
  9 C       -0.3430     2.0020    -1.2040 C.ar  1 <1>  -0.1500 
 10 H        0.2250     2.5590    -1.9460 H     1 <1>   0.1500 
 11 C       -1.7310     2.1930    -1.0850 C.ar  1 <1>   0.0000 
 12 C       -2.4270     3.0900    -1.9020 C.ar  1 <1>  -0.1500 
 13 H       -1.9060     3.6710    -2.6590 H     1 <1>   0.1500 
 14 C       -3.8000     3.2460    -1.7470 C.ar  1 <1>  -0.1500 
 15 H       -4.3430     3.9470    -2.3730 H     1 <1>   0.1500 
 16 C       -4.4520     2.4950    -0.7760 C.ar  1 <1>   0.1660 
 17 C       -5.9400     2.6620    -0.5540 C.3   1 <1>   0.1440 
 18 H       -6.3600     3.1930    -1.4200 H     1 <1>   0.0000 
 19 C       -6.2150     3.5040     0.7010 C.3   1 <1>   0.0000 
 20 H       -5.4370     3.3900     1.4660 H     1 <1>   0.0000 
 21 H       -6.1980     4.5630     0.4130 H     1 <1>   0.0000 
 22 C       -7.5660     3.1690     1.3240 C.3   1 <1>   0.2800 
 23 H       -7.9630     4.0420     1.8520 H     1 <1>   0.0000 
 24 H       -7.4780     2.3580     2.0570 H     1 <1>   0.0000 
 25 O       -8.4930     2.7970     0.3100 O.3   1 <1>  -0.5600 
 26 C       -8.1720     1.5360    -0.2830 C.3   1 <1>   0.2800 
 27 H       -8.6070     0.7350     0.3250 H     1 <1>   0.0000 
 28 H       -8.6720     1.5090    -1.2570 H     1 <1>   0.0000 
 29 C       -6.6700     1.3190    -0.4640 C.3   1 <1>   0.0000 
 30 H       -6.4850     0.6930    -1.3450 H     1 <1>   0.0000 
 31 H       -6.2950     0.7470     0.3950 H     1 <1>   0.0000 
 32 N       -3.7930     1.6250     0.0300 N.ar  1 <1>  -0.6200 
 33 C       -2.4650     1.4750    -0.1230 C.ar  1 <1>   0.3100 
 34 C       -1.7780     0.5840     0.6890 C.ar  1 <1>  -0.1500 
 35 H       -2.3350     0.0220     1.4350 H     1 <1>   0.1500 
@<TRIPOS>BOND
  1   1   2  1   
  2   2   3  ar  
  3   2  34  ar  
  4   3   4  1   
  5   3   9  ar  
  6   4   5  1   
  7   5   6  1   
  8   5   7  1   
  9   5   8  1   
 10   9  10  1   
 11   9  11  ar  
 12  11  12  ar  
 13  11  33  ar  
 14  12  13  1   
 15  12  14  ar  
 16  14  15  1   
 17  14  16  ar  
 18  16  17  1   
 19  16  32  ar  
 20  17  18  1   
 21  17  19  1   
 22  17  29  1   
 23  19  20  1   
 24  19  21  1   
 25  19  22  1   
 26  22  23  1   
 27  22  24  1   
 28  22  25  1   
 29  25  26  1   
 30  26  27  1   
 31  26  28  1   
 32  26  29  1   
 33  29  30  1   
 34  29  31  1   
 35  32  33  ar  
 36  33  34  ar  
 37  34  35  1   
@<TRIPOS>SUBSTRUCTURE
  1 ****  32 GROUP 4 **** **** 0

# MOE 2022.02 (io_trps.svl 2020.11)

@<TRIPOS>MOLECULE
ACT066
25 26 1 0 0 
SMALL
USER_CHARGES


@<TRIPOS>ATOM
  1 H       -1.2290     4.0810     0.1920 H     1 <1>   0.4000 
  2 N       -0.4810     3.3830     0.1050 N.2   1 <1>  -0.8500 
  3 C        0.6650     3.9590     0.2430 C.2   1 <1>   0.4760 
  4 H        0.7290     5.0450     0.4220 H     1 <1>   0.0600 
  5 C        1.8730     3.1810     0.1600 C.2   1 <1>  -0.0860 
  6 C        2.0530     1.7910    -0.0330 C.2   1 <1>   0.1080 
  7 C        1.0130     0.7450    -0.2190 C.3   1 <1>   0.1810 
  8 H        0.4050     0.9610    -1.1030 H     1 <1>   0.0000 
  9 H        0.3580     0.6950     0.6560 H     1 <1>   0.0000 
 10 H        1.4610    -0.2450    -0.3570 H     1 <1>   0.0000 
 11 N        3.3430     1.4410    -0.0050 N.2   1 <1>  -0.7070 
 12 N        4.0410     2.6090     0.1240 N.pl3 1 <1>   0.5930 
 13 C        5.4700     2.5530     0.0590 C.ar  1 <1>  -0.0230 
 14 C        6.2680     3.6770    -0.1840 C.ar  1 <1>  -0.1500 
 15 H        5.8570     4.6580    -0.3860 H     1 <1>   0.1500 
 16 C        7.6630     3.5590    -0.2380 C.ar  1 <1>  -0.1500 
 17 H        8.2720     4.4390    -0.4300 H     1 <1>   0.1500 
 18 C        8.2740     2.3200    -0.0620 C.ar  1 <1>  -0.1500 
 19 H        9.3570     2.2340    -0.1070 H     1 <1>   0.1500 
 20 C        7.4930     1.1900     0.1550 C.ar  1 <1>  -0.1500 
 21 H        7.9620     0.2180     0.2830 H     1 <1>   0.1500 
 22 C        6.1010     1.3030     0.2090 C.ar  1 <1>  -0.1500 
 23 H        5.5180     0.3990     0.3830 H     1 <1>   0.1500 
 24 C        3.1570     3.6620     0.2970 C.2   1 <1>  -0.0280 
 25 CL       3.6320     5.2450     0.7360 Cl    1 <1>  -0.1240 
@<TRIPOS>BOND
  1   1   2  1   
  2   2   3  2   
  3   3   4  1   
  4   3   5  1   
  5   5   6  1   
  6   5  24  2   
  7   6   7  1   
  8   6  11  2   
  9   7   8  1   
 10   7   9  1   
 11   7  10  1   
 12  11  12  1   
 13  12  13  1   
 14  12  24  1   
 15  13  14  ar  
 16  13  22  ar  
 17  14  15  1   
 18  14  16  ar  
 19  16  17  1   
 20  16  18  ar  
 21  18  19  1   
 22  18  20  ar  
 23  20  21  1   
 24  20  22  ar  
 25  22  23  1   
 26  24  25  1   
@<TRIPOS>SUBSTRUCTURE
  1 ****  12 GROUP 4 **** **** 0

# MOE 2022.02 (io_trps.svl 2020.11)

@<TRIPOS>MOLECULE
ACT067
24 23 1 0 0 
SMALL
USER_CHARGES


@<TRIPOS>ATOM
  1 H        6.7900    -0.8530     1.0190 H     1 <1>   0.3600 
  2 N        6.6070    -0.5490     0.0640 N.3   1 <1>  -0.9900 
  3 H        7.3770    -0.9040    -0.5010 H     1 <1>   0.3600 
  4 C        5.3570    -1.1540    -0.4070 C.3   1 <1>   0.2700 
  5 H        5.2190    -0.8970    -1.4630 H     1 <1>   0.0000 
  6 H        5.4570    -2.2420    -0.3440 H     1 <1>   0.0000 
  7 C        4.1440    -0.6530     0.4060 C.3   1 <1>   0.2700 
  8 H        4.1160     0.4360     0.2850 H     1 <1>   0.0000 
  9 H        4.2960    -0.8360     1.4790 H     1 <1>   0.0000 
 10 N        2.8710    -1.2610    -0.0470 N.3   1 <1>  -0.8100 
 11 C        1.7270    -0.4040     0.3220 C.3   1 <1>   0.2700 
 12 H        1.8100    -0.0570     1.3590 H     1 <1>   0.0000 
 13 H        0.7880    -0.9640     0.2580 H     1 <1>   0.0000 
 14 C        1.5770     0.7840    -0.6250 C.3   1 <1>   0.0000 
 15 H        1.4900     0.4490    -1.6640 H     1 <1>   0.0000 
 16 H        2.4180     1.4810    -0.5580 H     1 <1>   0.0000 
 17 H        0.6690     1.3430    -0.3770 H     1 <1>   0.0000 
 18 C        2.7160    -2.6140     0.5230 C.3   1 <1>   0.2700 
 19 H        2.4140    -2.5670     1.5770 H     1 <1>   0.0000 
 20 H        3.6700    -3.1530     0.4990 H     1 <1>   0.0000 
 21 C        1.7280    -3.4620    -0.2730 C.3   1 <1>   0.0000 
 22 H        2.0150    -3.5110    -1.3290 H     1 <1>   0.0000 
 23 H        0.7060    -3.0790    -0.2120 H     1 <1>   0.0000 
 24 H        1.7180    -4.4850     0.1180 H     1 <1>   0.0000 
@<TRIPOS>BOND
  1   1   2  1   
  2   2   3  1   
  3   2   4  1   
  4   4   5  1   
  5   4   6  1   
  6   4   7  1   
  7   7   8  1   
  8   7   9  1   
  9   7  10  1   
 10  10  11  1   
 11  10  18  1   
 12  11  12  1   
 13  11  13  1   
 14  11  14  1   
 15  14  15  1   
 16  14  16  1   
 17  14  17  1   
 18  18  19  1   
 19  18  20  1   
 20  18  21  1   
 21  21  22  1   
 22  21  23  1   
 23  21  24  1   
@<TRIPOS>SUBSTRUCTURE
  1 ****  10 GROUP 4 **** **** 0

# MOE 2022.02 (io_trps.svl 2020.11)

@<TRIPOS>MOLECULE
ACT068
26 25 1 0 0 
SMALL
USER_CHARGES


@<TRIPOS>ATOM
  1 H       -0.6510    -1.8670     0.8930 H     1 <1>   0.4000 
  2 O        0.2370    -1.5910     1.1880 O.3   1 <1>  -0.6800 
  3 C        1.1510    -1.8230     0.1230 C.3   1 <1>   0.2800 
  4 H        0.8100    -1.2460    -0.7400 H     1 <1>   0.0000 
  5 H        1.1180    -2.8890    -0.1170 H     1 <1>   0.0000 
  6 C        2.5510    -1.3870     0.5800 C.3   1 <1>   0.5030 
  7 H        2.5360    -0.3250     0.8540 H     1 <1>   0.0000 
  8 H        2.8400    -1.9510     1.4760 H     1 <1>   0.0000 
  9 N        3.6920    -1.5750    -0.4650 N.4   1 <1>  -1.0120 
 10 C        3.8300    -3.0480    -0.8280 C.3   1 <1>   0.5030 
 11 H        2.9010    -3.3860    -1.2930 H     1 <1>   0.0000 
 12 H        4.6440    -3.1590    -1.5480 H     1 <1>   0.0000 
 13 H        4.0370    -3.6120     0.0850 H     1 <1>   0.0000 
 14 C        3.3980    -0.7470    -1.7100 C.3   1 <1>   0.5030 
 15 H        4.2160    -0.8780    -2.4220 H     1 <1>   0.0000 
 16 H        3.3020     0.3010    -1.4150 H     1 <1>   0.0000 
 17 H        2.4750    -1.1100    -2.1670 H     1 <1>   0.0000 
 18 C        4.9860    -1.0610     0.2420 C.3   1 <1>   0.5030 
 19 H        4.7870    -0.0210     0.5310 H     1 <1>   0.0000 
 20 H        5.0950    -1.6570     1.1560 H     1 <1>   0.0000 
 21 C        6.2520    -1.1470    -0.6070 C.3   1 <1>   0.0610 
 22 H        6.4900    -2.1770    -0.8850 H     1 <1>   0.0000 
 23 H        6.1800    -0.5390    -1.5120 H     1 <1>   0.0000 
 24 C        7.4180    -0.6210     0.1890 C.2   1 <1>   0.4490 
 25 H        8.3940    -0.6290    -0.3260 H     1 <1>   0.0600 
 26 O        7.3080    -0.2080     1.3380 O.2   1 <1>  -0.5700 
@<TRIPOS>BOND
  1   1   2  1   
  2   2   3  1   
  3   3   4  1   
  4   3   5  1   
  5   3   6  1   
  6   6   7  1   
  7   6   8  1   
  8   6   9  1   
  9   9  10  1   
 10   9  14  1   
 11   9  18  1   
 12  10  11  1   
 13  10  12  1   
 14  10  13  1   
 15  14  15  1   
 16  14  16  1   
 17  14  17  1   
 18  18  19  1   
 19  18  20  1   
 20  18  21  1   
 21  21  22  1   
 22  21  23  1   
 23  21  24  1   
 24  24  25  1   
 25  24  26  2   
@<TRIPOS>SUBSTRUCTURE
  1 ****   9 GROUP 4 **** **** 0

# MOE 2022.02 (io_trps.svl 2020.11)

@<TRIPOS>MOLECULE
ACT069
25 26 1 0 0 
SMALL
USER_CHARGES


@<TRIPOS>ATOM
  1 H       -0.4380     3.1330     1.0240 H     1 <1>   0.1500 
  2 C       -0.4170     2.1270     0.6040 C.2   1 <1>  -0.1050 
  3 C        0.7730     1.5960     0.2580 C.2   1 <1>   0.0290 
  4 C        1.9520     2.4690     0.5330 C.2   1 <1>   0.6160 
  5 O        1.8670     3.6160     0.9620 O.2   1 <1>  -0.5700 
  6 N        3.1770     1.9150     0.2790 N.am  1 <1>  -0.4900 
  7 H        3.9770     2.4990     0.4900 H     1 <1>   0.3700 
  8 C        3.4100     0.6750    -0.2240 C.2   1 <1>   0.5000 
  9 S        4.9550     0.1170    -0.4720 S.2   1 <1>  -0.3800 
 10 N        2.3240    -0.0840    -0.5270 N.am  1 <1>  -0.4900 
 11 H        2.4820    -1.0020    -0.9230 H     1 <1>   0.3700 
 12 C        1.0060     0.2630    -0.3670 C.2   1 <1>   0.6160 
 13 O        0.1360    -0.5050    -0.7560 O.2   1 <1>  -0.5700 
 14 C       -1.6820     1.4910     0.5090 C.2   1 <1>  -0.1970 
 15 C       -2.1510     0.2520     0.9120 C.2   1 <1>  -0.1500 
 16 H       -1.5600    -0.5280     1.3730 H     1 <1>   0.1500 
 17 C       -3.5320     0.1840     0.6160 C.2   1 <1>  -0.1500 
 18 H       -4.1960    -0.6500     0.8000 H     1 <1>   0.1500 
 19 C       -3.8850     1.3850     0.0480 C.2   1 <1>  -0.3020 
 20 H       -4.8420     1.7360    -0.3180 H     1 <1>   0.1500 
 21 N       -2.7620     2.1730    -0.0200 N.pl3 1 <1>   0.0480 
 22 C       -2.7540     3.5090    -0.5800 C.3   1 <1>   0.2560 
 23 H       -1.9710     3.5660    -1.3400 H     1 <1>   0.0000 
 24 H       -2.5690     4.2200     0.2290 H     1 <1>   0.0000 
 25 H       -3.7230     3.7180    -1.0410 H     1 <1>   0.0000 
@<TRIPOS>BOND
  1   1   2  1   
  2   2   3  2   
  3   2  14  1   
  4   3   4  1   
  5   3  12  1   
  6   4   5  2   
  7   4   6  am  
  8   6   7  1   
  9   6   8  am  
 10   8   9  2   
 11   8  10  am  
 12  10  11  1   
 13  10  12  am  
 14  12  13  2   
 15  14  15  2   
 16  14  21  1   
 17  15  16  1   
 18  15  17  1   
 19  17  18  1   
 20  17  19  2   
 21  19  20  1   
 22  19  21  1   
 23  21  22  1   
 24  22  23  1   
 25  22  24  1   
 26  22  25  1   
@<TRIPOS>SUBSTRUCTURE
  1 ****   3 GROUP 4 **** **** 0

# MOE 2022.02 (io_trps.svl 2020.11)

@<TRIPOS>MOLECULE
ACT070
16 16 1 0 0 
SMALL
USER_CHARGES


@<TRIPOS>ATOM
  1 H        2.2060     1.7570     0.4100 H     1 <1>   0.1500 
  2 C        1.1330     1.7900     0.2770 C.2   1 <1>  -0.1500 
  3 C        0.3240     2.9440     0.1730 C.2   1 <1>  -0.1500 
  4 H        0.6600     3.9720     0.2120 H     1 <1>   0.1500 
  5 C       -0.9860     2.5310     0.0120 C.2   1 <1>  -0.3320 
  6 C       -2.2220     3.3420    -0.1440 C.3   1 <1>   0.1800 
  7 H       -1.9970     4.4120    -0.0840 H     1 <1>   0.0000 
  8 H       -2.9430     3.1060     0.6450 H     1 <1>   0.0000 
  9 H       -2.6890     3.1510    -1.1150 H     1 <1>   0.0000 
 10 N       -0.9810     1.1540     0.0160 N.pl3 1 <1>   0.0480 
 11 C       -2.1430     0.3040    -0.1270 C.3   1 <1>   0.2560 
 12 H       -2.6330     0.5420    -1.0740 H     1 <1>   0.0000 
 13 H       -2.8130     0.4920     0.7160 H     1 <1>   0.0000 
 14 H       -1.8330    -0.7440    -0.1270 H     1 <1>   0.0000 
 15 C        0.3010     0.6980     0.1770 C.2   1 <1>  -0.3020 
 16 H        0.5230    -0.3610     0.2080 H     1 <1>   0.1500 
@<TRIPOS>BOND
  1   1   2  1   
  2   2   3  1   
  3   2  15  2   
  4   3   4  1   
  5   3   5  2   
  6   5   6  1   
  7   5  10  1   
  8   6   7  1   
  9   6   8  1   
 10   6   9  1   
 11  10  11  1   
 12  10  15  1   
 13  11  12  1   
 14  11  13  1   
 15  11  14  1   
 16  15  16  1   
@<TRIPOS>SUBSTRUCTURE
  1 ****  10 GROUP 4 **** **** 0

# MOE 2022.02 (io_trps.svl 2020.11)

@<TRIPOS>MOLECULE
ACT071
20 21 1 0 0 
SMALL
USER_CHARGES


@<TRIPOS>ATOM
  1 H       -1.0020    -2.0090    -0.3350 H     1 <1>   0.1500 
  2 C       -1.0200    -0.9410    -0.1450 C.ar  1 <1>  -0.1500 
  3 C        0.1520    -0.2300    -0.0200 C.ar  1 <1>   0.0820 
  4 C        0.1570     1.1250     0.2160 C.ar  1 <1>   0.0820 
  5 C       -1.0110     1.8520     0.3470 C.ar  1 <1>  -0.1500 
  6 H       -0.9630     2.9210     0.5340 H     1 <1>   0.1500 
  7 C       -2.2400     1.1760     0.2390 C.ar  1 <1>  -0.1440 
  8 C       -3.5130     1.9640     0.3860 C.3   1 <1>   0.1440 
  9 H       -3.3220     2.9420     0.8400 H     1 <1>   0.0000 
 10 H       -3.9710     2.1320    -0.5930 H     1 <1>   0.0000 
 11 H       -4.2190     1.4440     1.0410 H     1 <1>   0.0000 
 12 C       -2.2190    -0.2200    -0.0220 C.ar  1 <1>   0.1330 
 13 N       -3.4590    -0.9720    -0.1740 N.pl3 1 <1>   0.9070 
 14 O       -4.3100    -0.5240    -0.9540 O.2   1 <1>  -0.5200 
 15 O       -3.5660    -2.0200     0.4770 O.2   1 <1>  -0.5200 
 16 O        1.4160     1.6300     0.3000 O.3   1 <1>  -0.3630 
 17 C        2.2050     0.4400     0.0910 C.3   1 <1>   0.5600 
 18 H        2.8450     0.2840     0.9670 H     1 <1>   0.0000 
 19 H        2.8420     0.5900    -0.7880 H     1 <1>   0.0000 
 20 O        1.4060    -0.7450    -0.1140 O.3   1 <1>  -0.3630 
@<TRIPOS>BOND
  1   1   2  1   
  2   2   3  ar  
  3   2  12  ar  
  4   3   4  ar  
  5   3  20  1   
  6   4   5  ar  
  7   4  16  1   
  8   5   6  1   
  9   5   7  ar  
 10   7   8  1   
 11   7  12  ar  
 12   8   9  1   
 13   8  10  1   
 14   8  11  1   
 15  12  13  1   
 16  13  14  2   
 17  13  15  2   
 18  16  17  1   
 19  17  18  1   
 20  17  19  1   
 21  17  20  1   
@<TRIPOS>SUBSTRUCTURE
  1 ****  12 GROUP 4 **** **** 0

# MOE 2022.02 (io_trps.svl 2020.11)

@<TRIPOS>MOLECULE
ACT072
13 13 1 0 0 
SMALL
USER_CHARGES


@<TRIPOS>ATOM
  1 H        5.5600     0.9750    -0.0010 H     1 <1>   0.0600 
  2 C        5.0920    -0.0240     0.0010 C.2   1 <1>   0.4960 
  3 O        5.7660    -1.0470     0.0020 O.2   1 <1>  -0.5700 
  4 C        3.6090    -0.0420     0.0020 C.2   1 <1>   0.0140 
  5 C        2.9390     1.1140    -0.0010 C.2   1 <1>  -0.0730 
  6 H        3.3610     2.1100    -0.0040 H     1 <1>   0.1500 
  7 O        1.5330     1.1860     0.0000 O.3   1 <1>  -0.2270 
  8 C        0.7840     0.0370     0.0040 C.2   1 <1>   0.7060 
  9 O       -0.4410     0.0480     0.0050 O.2   1 <1>  -0.5700 
 10 C        1.5210    -1.2440     0.0070 C.2   1 <1>  -0.1360 
 11 H        0.9220    -2.1460     0.0100 H     1 <1>   0.1500 
 12 C        2.8590    -1.2710     0.0060 C.2   1 <1>  -0.1500 
 13 H        3.4020    -2.2120     0.0080 H     1 <1>   0.1500 
@<TRIPOS>BOND
  1   1   2  1   
  2   2   3  2   
  3   2   4  1   
  4   4   5  2   
  5   4  12  1   
  6   5   6  1   
  7   5   7  1   
  8   7   8  1   
  9   8   9  2   
 10   8  10  1   
 11  10  11  1   
 12  10  12  2   
 13  12  13  1   
@<TRIPOS>SUBSTRUCTURE
  1 ****   4 GROUP 4 **** **** 0

# MOE 2022.02 (io_trps.svl 2020.11)

@<TRIPOS>MOLECULE
ACT073
24 25 1 0 0 
SMALL
USER_CHARGES


@<TRIPOS>ATOM
  1 H        9.2940    -1.2620    -0.3770 H     1 <1>   0.4500 
  2 O        8.9780    -0.4310     0.0150 O.3   1 <1>  -0.5320 
  3 C        7.6150    -0.4430     0.0190 C.ar  1 <1>   0.0820 
  4 C        6.8960    -1.5190    -0.4870 C.ar  1 <1>  -0.1500 
  5 H        7.3990    -2.3830    -0.9090 H     1 <1>   0.1500 
  6 C        5.4980    -1.4880    -0.4590 C.ar  1 <1>  -0.1500 
  7 H        4.9640    -2.3320    -0.8890 H     1 <1>   0.1500 
  8 C        4.8160    -0.3750     0.0640 C.ar  1 <1>  -0.0230 
  9 N        3.3860    -0.3660     0.0910 N.pl3 1 <1>   0.3260 
 10 C        2.6040    -1.5100     0.1460 C.2   1 <1>  -0.3020 
 11 H        3.0520    -2.4930     0.1720 H     1 <1>   0.1500 
 12 C        1.2780    -1.1630     0.2430 C.2   1 <1>  -0.1500 
 13 H        0.4470    -1.8510     0.3290 H     1 <1>   0.1500 
 14 C        1.2200     0.2400     0.2030 C.2   1 <1>  -0.1500 
 15 H        0.3250     0.8480     0.2280 H     1 <1>   0.1500 
 16 C        2.5120     0.7220     0.0690 C.2   1 <1>  -0.3320 
 17 C        2.9000     2.1440    -0.1540 C.3   1 <1>   0.1800 
 18 H        3.7210     2.2360    -0.8710 H     1 <1>   0.0000 
 19 H        3.1760     2.6240     0.7890 H     1 <1>   0.0000 
 20 H        2.0560     2.7060    -0.5690 H     1 <1>   0.0000 
 21 C        5.5610     0.6920     0.5800 C.ar  1 <1>  -0.1500 
 22 H        5.0910     1.5430     1.0590 H     1 <1>   0.1500 
 23 C        6.9590     0.6580     0.5540 C.ar  1 <1>  -0.1500 
 24 H        7.5330     1.4850     0.9630 H     1 <1>   0.1500 
@<TRIPOS>BOND
  1   1   2  1   
  2   2   3  1   
  3   3   4  ar  
  4   3  23  ar  
  5   4   5  1   
  6   4   6  ar  
  7   6   7  1   
  8   6   8  ar  
  9   8   9  1   
 10   8  21  ar  
 11   9  10  1   
 12   9  16  1   
 13  10  11  1   
 14  10  12  2   
 15  12  13  1   
 16  12  14  1   
 17  14  15  1   
 18  14  16  2   
 19  16  17  1   
 20  17  18  1   
 21  17  19  1   
 22  17  20  1   
 23  21  22  1   
 24  21  23  ar  
 25  23  24  1   
@<TRIPOS>SUBSTRUCTURE
  1 ****   8 GROUP 4 **** **** 0

# MOE 2022.02 (io_trps.svl 2020.11)

@<TRIPOS>MOLECULE
ACT074
17 17 1 0 0 
SMALL
USER_CHARGES


@<TRIPOS>ATOM
  1 H        3.6240    -2.0080     0.1430 H     1 <1>   0.0600 
  2 C        3.6720    -0.9050     0.0620 C.2   1 <1>   0.3040 
  3 N        4.8060    -0.2780     0.0120 N.2   1 <1>  -0.5030 
  4 N        5.8770    -1.1020     0.0580 N.pl3 1 <1>  -0.5690 
  5 H        5.8820    -1.7480    -0.7100 H     1 <1>   0.3110 
  6 H        6.7230    -0.5620     0.0420 H     1 <1>   0.3110 
  7 C        2.3820    -0.1890     0.0200 C.ar  1 <1>   0.0860 
  8 C        2.3370     1.2070    -0.0780 C.ar  1 <1>  -0.1500 
  9 H        3.2580     1.7860    -0.1230 H     1 <1>   0.1500 
 10 C        1.1050     1.8640    -0.1180 C.ar  1 <1>  -0.1500 
 11 H        1.0700     2.9480    -0.1940 H     1 <1>   0.1500 
 12 C       -0.0770     1.1260    -0.0600 C.ar  1 <1>  -0.1500 
 13 H       -1.0420     1.6210    -0.0900 H     1 <1>   0.1500 
 14 C       -0.0170    -0.2610     0.0390 C.ar  1 <1>   0.1900 
 15 F       -1.1540    -0.9660     0.0960 F     1 <1>  -0.1900 
 16 C        1.2010    -0.9300     0.0800 C.ar  1 <1>  -0.1500 
 17 H        1.2080    -2.0120     0.1590 H     1 <1>   0.1500 
@<TRIPOS>BOND
  1   1   2  1   
  2   2   3  2   
  3   2   7  1   
  4   3   4  1   
  5   4   5  1   
  6   4   6  1   
  7   7   8  ar  
  8   7  16  ar  
  9   8   9  1   
 10   8  10  ar  
 11  10  11  1   
 12  10  12  ar  
 13  12  13  1   
 14  12  14  ar  
 15  14  15  1   
 16  14  16  ar  
 17  16  17  1   
@<TRIPOS>SUBSTRUCTURE
  1 ****   7 GROUP 4 **** **** 0

# MOE 2022.02 (io_trps.svl 2020.11)

@<TRIPOS>MOLECULE
ACT075
27 28 1 0 0 
SMALL
USER_CHARGES


@<TRIPOS>ATOM
  1 H        9.4330     5.0910     0.1230 H     1 <1>   0.5000 
  2 O        8.4690     5.1240     0.3070 O.3   1 <1>  -0.6500 
  3 C        7.9380     4.2470    -0.5600 C.2   1 <1>   0.6590 
  4 O        8.6610     3.6310    -1.3270 O.2   1 <1>  -0.5700 
  5 C        6.4420     4.1230    -0.5030 C.3   1 <1>   0.0610 
  6 H        6.2020     3.0600    -0.3890 H     1 <1>   0.0000 
  7 H        6.0440     4.4620    -1.4650 H     1 <1>   0.0000 
  8 C        5.8070     4.9190     0.6330 C.3   1 <1>   0.3000 
  9 H        6.0330     5.9860     0.5110 H     1 <1>   0.0000 
 10 H        6.2280     4.6160     1.5980 H     1 <1>   0.0000 
 11 N        4.3490     4.7590     0.6560 N.am  1 <1>  -0.4200 
 12 C        3.5800     5.5930    -0.1390 C.2   1 <1>   0.6160 
 13 O        4.0130     6.4500    -0.8970 O.2   1 <1>  -0.5700 
 14 C        2.1320     5.2950     0.0360 C.2   1 <1>   0.1150 
 15 C        1.2170     6.0250    -0.6140 C.2   1 <1>  -0.1050 
 16 H        1.5620     6.8430    -1.2460 H     1 <1>   0.1500 
 17 C       -0.1990     5.8930    -0.5500 C.2   1 <1>   0.0950 
 18 O       -1.0130     6.9520    -0.9010 O.3   1 <1>  -0.2800 
 19 C       -2.3060     6.5770    -0.7630 C.2   1 <1>  -0.0100 
 20 H       -3.0410     7.3320    -1.0040 H     1 <1>   0.1500 
 21 C       -2.3810     5.2770    -0.3400 C.2   1 <1>  -0.1500 
 22 H       -3.2830     4.7130    -0.1540 H     1 <1>   0.1500 
 23 C       -1.0400     4.8370    -0.2140 C.2   1 <1>  -0.1500 
 24 H       -0.7350     3.8430     0.0810 H     1 <1>   0.1500 
 25 S        1.9380     4.0050     1.1490 S.3   1 <1>  -0.2420 
 26 C        3.6680     3.8270     1.4090 C.2   1 <1>   0.5810 
 27 S        4.2980     2.6640     2.4250 S.2   1 <1>  -0.3800 
@<TRIPOS>BOND
  1   1   2  1   
  2   2   3  1   
  3   3   4  2   
  4   3   5  1   
  5   5   6  1   
  6   5   7  1   
  7   5   8  1   
  8   8   9  1   
  9   8  10  1   
 10   8  11  1   
 11  11  12  am  
 12  11  26  am  
 13  12  13  2   
 14  12  14  1   
 15  14  15  2   
 16  14  25  1   
 17  15  16  1   
 18  15  17  1   
 19  17  18  1   
 20  17  23  2   
 21  18  19  1   
 22  19  20  1   
 23  19  21  2   
 24  21  22  1   
 25  21  23  1   
 26  23  24  1   
 27  25  26  1   
 28  26  27  2   
@<TRIPOS>SUBSTRUCTURE
  1 ****  12 GROUP 4 **** **** 0

# MOE 2022.02 (io_trps.svl 2020.11)

@<TRIPOS>MOLECULE
ACT076
12 11 1 0 0 
SMALL
USER_CHARGES


@<TRIPOS>ATOM
  1 H       -0.5150    -0.7040    -0.3620 H     1 <1>   0.5000 
  2 O        0.2710    -0.4460    -0.8910 O.3   1 <1>  -0.6840 
  3 S        1.2440     0.4260     0.0580 S.o2  1 <1>   1.3780 
  4 O        0.7340     0.2530     1.4000 O.2   1 <1>  -0.6500 
  5 O        1.4140     1.7240    -0.5510 O.2   1 <1>  -0.6500 
  6 C        2.7270    -0.5460    -0.1550 C.3   1 <1>   0.1050 
  7 H        2.9740    -0.5400    -1.2210 H     1 <1>   0.0000 
  8 H        2.4980    -1.5690     0.1590 H     1 <1>   0.0000 
  9 C        3.8750     0.0140     0.6590 C.3   1 <1>   0.0000 
 10 H        4.7750    -0.5920     0.5170 H     1 <1>   0.0000 
 11 H        4.1040     1.0430     0.3610 H     1 <1>   0.0000 
 12 H        3.6330     0.0230     1.7270 H     1 <1>   0.0000 
@<TRIPOS>BOND
  1   1   2  1   
  2   2   3  1   
  3   3   4  2   
  4   3   5  2   
  5   3   6  1   
  6   6   7  1   
  7   6   8  1   
  8   6   9  1   
  9   9  10  1   
 10   9  11  1   
 11   9  12  1   
@<TRIPOS>SUBSTRUCTURE
  1 ****   3 GROUP 4 **** **** 0

# MOE 2022.02 (io_trps.svl 2020.11)

@<TRIPOS>MOLECULE
ACT077
17 18 1 0 0 
SMALL
USER_CHARGES


@<TRIPOS>ATOM
  1 H        7.6460    -0.8960    -0.0260 H     1 <1>   0.0600 
  2 C        7.0790     0.0500    -0.0160 C.2   1 <1>   0.5950 
  3 O        7.6870     1.1170    -0.0110 O.2   1 <1>  -0.5700 
  4 C        5.6480    -0.1110    -0.0110 C.2   1 <1>   0.0550 
  5 O        4.8580     1.0040     0.0010 O.3   1 <1>  -0.2800 
  6 C        3.5640     0.5850     0.0040 C.ar  1 <1>   0.1400 
  7 C        2.4470     1.4160     0.0150 C.ar  1 <1>  -0.1500 
  8 H        2.5470     2.4950     0.0220 H     1 <1>   0.1500 
  9 C        1.1990     0.7830     0.0170 C.ar  1 <1>  -0.1500 
 10 H        0.2990     1.3950     0.0250 H     1 <1>   0.1500 
 11 C        1.1040    -0.6110     0.0070 C.ar  1 <1>   0.1110 
 12 BR      -0.6070    -1.4230     0.0100 Br    1 <1>  -0.1110 
 13 C        2.2450    -1.4250    -0.0040 C.ar  1 <1>  -0.1500 
 14 H        2.1610    -2.5080    -0.0110 H     1 <1>   0.1500 
 15 C        3.5060    -0.8030    -0.0060 C.ar  1 <1>   0.0000 
 16 C        4.8560    -1.2450    -0.0150 C.2   1 <1>  -0.1500 
 17 H        5.2060    -2.2680    -0.0240 H     1 <1>   0.1500 
@<TRIPOS>BOND
  1   1   2  1   
  2   2   3  2   
  3   2   4  1   
  4   4   5  1   
  5   4  16  2   
  6   5   6  1   
  7   6   7  ar  
  8   6  15  ar  
  9   7   8  1   
 10   7   9  ar  
 11   9  10  1   
 12   9  11  ar  
 13  11  12  1   
 14  11  13  ar  
 15  13  14  1   
 16  13  15  ar  
 17  15  16  1   
 18  16  17  1   
@<TRIPOS>SUBSTRUCTURE
  1 ****   6 GROUP 4 **** **** 0

# MOE 2022.02 (io_trps.svl 2020.11)

@<TRIPOS>MOLECULE
ACT078
14 15 1 0 0 
SMALL
USER_CHARGES


@<TRIPOS>ATOM
  1 H       -5.3820    -1.9700     0.0030 H     1 <1>   0.1500 
  2 C       -4.4290    -1.4500     0.0020 C.2   1 <1>  -0.1500 
  3 C       -4.4500     0.0080     0.0010 C.2   1 <1>  -0.1500 
  4 H       -5.4070     0.5190     0.0010 H     1 <1>   0.1500 
  5 C       -3.2830     0.6770     0.0000 C.2   1 <1>  -0.1810 
  6 H       -3.2160     1.7570     0.0000 H     1 <1>   0.1500 
  7 N       -2.0950    -0.0480     0.0010 N.pl3 1 <1>   0.3340 
  8 C       -0.7920     0.3610     0.0010 C.2   1 <1>   0.0370 
  9 H       -0.4910     1.3980     0.0000 H     1 <1>   0.1500 
 10 N        0.0090    -0.6810     0.0010 N.2   1 <1>  -0.3380 
 11 N       -0.7770    -1.8160     0.0010 N.2   1 <1>  -0.3380 
 12 C       -2.0360    -1.4330     0.0020 C.2   1 <1>   0.1420 
 13 C       -3.2700    -2.1400     0.0020 C.2   1 <1>  -0.1050 
 14 H       -3.2500    -3.2230     0.0030 H     1 <1>   0.1500 
@<TRIPOS>BOND
  1   1   2  1   
  2   2   3  1   
  3   2  13  2   
  4   3   4  1   
  5   3   5  2   
  6   5   6  1   
  7   5   7  1   
  8   7   8  1   
  9   7  12  1   
 10   8   9  1   
 11   8  10  2   
 12  10  11  1   
 13  11  12  2   
 14  12  13  1   
 15  13  14  1   
@<TRIPOS>SUBSTRUCTURE
  1 ****   7 GROUP 4 **** **** 0

# MOE 2022.02 (io_trps.svl 2020.11)

@<TRIPOS>MOLECULE
ACT079
22 22 1 0 0 
SMALL
USER_CHARGES


@<TRIPOS>ATOM
  1 H        2.5180    -2.9360    -0.0080 H     1 <1>   0.4500 
  2 O        3.2250    -2.2590    -0.0160 O.3   1 <1>  -0.5320 
  3 C        2.5830    -1.0500    -0.0220 C.ar  1 <1>   0.0820 
  4 C        1.1830    -1.0240    -0.0640 C.ar  1 <1>   0.0820 
  5 O        0.5880    -2.2610    -0.0680 O.3   1 <1>  -0.3630 
  6 C       -0.8350    -2.2900    -0.1030 C.3   1 <1>   0.2800 
  7 H       -1.2150    -1.8320    -1.0220 H     1 <1>   0.0000 
  8 H       -1.2610    -1.8120     0.7850 H     1 <1>   0.0000 
  9 H       -1.1470    -3.3390    -0.1000 H     1 <1>   0.0000 
 10 C        0.5190     0.2070    -0.1000 C.ar  1 <1>  -0.1500 
 11 H       -0.5670     0.2570    -0.1260 H     1 <1>   0.1500 
 12 C        1.2390     1.4160    -0.1090 C.ar  1 <1>  -0.1440 
 13 C        0.5120     2.7300    -0.1180 C.3   1 <1>   0.1440 
 14 H        1.1250     3.5140    -0.5740 H     1 <1>   0.0000 
 15 H        0.2640     3.0260     0.9070 H     1 <1>   0.0000 
 16 H       -0.4120     2.6590    -0.7010 H     1 <1>   0.0000 
 17 C        2.6370     1.3830    -0.0510 C.ar  1 <1>  -0.1500 
 18 H        3.2110     2.3080    -0.0390 H     1 <1>   0.1500 
 19 C        3.2920     0.1470    -0.0060 C.ar  1 <1>   0.1330 
 20 N        4.7360     0.1380     0.0570 N.pl3 1 <1>   0.9070 
 21 O        5.2620    -0.3060     1.0870 O.2   1 <1>  -0.5200 
 22 O        5.3400     0.6440    -0.9000 O.2   1 <1>  -0.5200 
@<TRIPOS>BOND
  1   1   2  1   
  2   2   3  1   
  3   3   4  ar  
  4   3  19  ar  
  5   4   5  1   
  6   4  10  ar  
  7   5   6  1   
  8   6   7  1   
  9   6   8  1   
 10   6   9  1   
 11  10  11  1   
 12  10  12  ar  
 13  12  13  1   
 14  12  17  ar  
 15  13  14  1   
 16  13  15  1   
 17  13  16  1   
 18  17  18  1   
 19  17  19  ar  
 20  19  20  1   
 21  20  21  2   
 22  20  22  2   
@<TRIPOS>SUBSTRUCTURE
  1 ****   3 GROUP 4 **** **** 0

# MOE 2022.02 (io_trps.svl 2020.11)

@<TRIPOS>MOLECULE
ACT080
9 9 1 0 0 
SMALL
USER_CHARGES


@<TRIPOS>ATOM
  1 H        1.7350     2.1910    -0.0010 H     1 <1>   0.1500 
  2 C        0.7410     1.7650    -0.0010 C.2   1 <1>  -0.1100 
  3 S        0.5360     0.0660     0.0010 S.3   1 <1>  -0.0800 
  4 C       -1.1690     0.2180     0.0000 C.2   1 <1>  -0.1100 
  5 H       -1.7920    -0.6660     0.0010 H     1 <1>   0.1500 
  6 C       -1.5710     1.5350    -0.0010 C.2   1 <1>  -0.1500 
  7 H       -2.6110     1.8410    -0.0020 H     1 <1>   0.1500 
  8 C       -0.4640     2.4320    -0.0020 C.2   1 <1>  -0.1500 
  9 H       -0.5470     3.5120    -0.0030 H     1 <1>   0.1500 
@<TRIPOS>BOND
  1   1   2  1   
  2   2   3  1   
  3   2   8  2   
  4   3   4  1   
  5   4   5  1   
  6   4   6  2   
  7   6   7  1   
  8   6   8  1   
  9   8   9  1   
@<TRIPOS>SUBSTRUCTURE
  1 ****   6 GROUP 4 **** **** 0

# MOE 2022.02 (io_trps.svl 2020.11)

@<TRIPOS>MOLECULE
ACT081
20 20 1 0 0 
SMALL
USER_CHARGES


@<TRIPOS>ATOM
  1 H        1.0250     2.0550     0.3010 H     1 <1>   0.4500 
  2 O        0.8500     1.1050     0.2240 O.3   1 <1>  -0.5320 
  3 C        2.0440     0.4400     0.1130 C.ar  1 <1>   0.0820 
  4 C        3.2380     1.1600     0.1240 C.ar  1 <1>  -0.1500 
  5 H        3.2410     2.2410     0.2180 H     1 <1>   0.1500 
  6 C        4.4530     0.4850     0.0110 C.ar  1 <1>  -0.1500 
  7 H        5.3800     1.0530     0.0210 H     1 <1>   0.1500 
  8 C        4.4770    -0.9090    -0.1140 C.ar  1 <1>  -0.1440 
  9 C        5.7780    -1.6480    -0.2300 C.3   1 <1>   0.1440 
 10 H        5.7930    -2.2430    -1.1490 H     1 <1>   0.0000 
 11 H        5.9120    -2.3110     0.6310 H     1 <1>   0.0000 
 12 H        6.6300    -0.9610    -0.2640 H     1 <1>   0.0000 
 13 C        3.2660    -1.6220    -0.1200 C.ar  1 <1>  -0.1500 
 14 H        3.3100    -2.7020    -0.2150 H     1 <1>   0.1500 
 15 C        2.0410    -0.9560    -0.0080 C.ar  1 <1>   0.0820 
 16 O        0.8120    -1.5620    -0.0050 O.3   1 <1>  -0.3630 
 17 C        0.7800    -2.9760    -0.1220 C.3   1 <1>   0.2800 
 18 H       -0.2680    -3.2900    -0.1010 H     1 <1>   0.0000 
 19 H        1.2860    -3.4550     0.7220 H     1 <1>   0.0000 
 20 H        1.2050    -3.3040    -1.0770 H     1 <1>   0.0000 
@<TRIPOS>BOND
  1   1   2  1   
  2   2   3  1   
  3   3   4  ar  
  4   3  15  ar  
  5   4   5  1   
  6   4   6  ar  
  7   6   7  1   
  8   6   8  ar  
  9   8   9  1   
 10   8  13  ar  
 11   9  10  1   
 12   9  11  1   
 13   9  12  1   
 14  13  14  1   
 15  13  15  ar  
 16  15  16  1   
 17  16  17  1   
 18  17  18  1   
 19  17  19  1   
 20  17  20  1   
@<TRIPOS>SUBSTRUCTURE
  1 ****  15 GROUP 4 **** **** 0

# MOE 2022.02 (io_trps.svl 2020.11)

@<TRIPOS>MOLECULE
ACT082
14 14 1 0 0 
SMALL
USER_CHARGES


@<TRIPOS>ATOM
  1 H       -0.5470     2.9920     0.4220 H     1 <1>   0.0000 
  2 C       -0.9090     2.1860    -0.2200 C.3   1 <1>   0.0610 
  3 H       -0.9540     2.5080    -1.2640 H     1 <1>   0.0000 
  4 C       -0.0320     0.9660    -0.1200 C.2   1 <1>   0.4480 
  5 O        1.1890     0.9950    -0.2060 O.2   1 <1>  -0.5700 
  6 C       -0.8290    -0.2930     0.0990 C.3   1 <1>   0.0610 
  7 H       -0.5220    -1.0840    -0.5890 H     1 <1>   0.0000 
  8 H       -0.7130    -0.6130     1.1380 H     1 <1>   0.0000 
  9 C       -2.2480     0.1840    -0.1820 C.3   1 <1>   0.0000 
 10 H       -2.4640     0.1140    -1.2550 H     1 <1>   0.0000 
 11 H       -2.9950    -0.4100     0.3520 H     1 <1>   0.0000 
 12 C       -2.2520     1.6440     0.2530 C.3   1 <1>   0.0000 
 13 H       -2.3190     1.7070     1.3460 H     1 <1>   0.0000 
 14 H       -3.0930     2.2020    -0.1690 H     1 <1>   0.0000 
@<TRIPOS>BOND
  1   1   2  1   
  2   2   3  1   
  3   2   4  1   
  4   2  12  1   
  5   4   5  2   
  6   4   6  1   
  7   6   7  1   
  8   6   8  1   
  9   6   9  1   
 10   9  10  1   
 11   9  11  1   
 12   9  12  1   
 13  12  13  1   
 14  12  14  1   
@<TRIPOS>SUBSTRUCTURE
  1 ****   4 GROUP 4 **** **** 0

# MOE 2022.02 (io_trps.svl 2020.11)

@<TRIPOS>MOLECULE
ACT083
17 16 1 0 0 
SMALL
USER_CHARGES


@<TRIPOS>ATOM
  1 H        0.6680    -1.1410     0.0710 H     1 <1>   0.1500 
  2 C        0.7550    -0.0550     0.0720 C.2   1 <1>  -0.0500 
  3 C        1.9760     0.4940     0.1030 C.2   1 <1>  -0.2880 
  4 H        2.0870     1.5730     0.1050 H     1 <1>   0.1500 
  5 C        3.2420    -0.2970     0.1340 C.3   1 <1>   0.1380 
  6 H        3.0580    -1.3760     0.1350 H     1 <1>   0.0000 
  7 H        3.8150    -0.0470     1.0330 H     1 <1>   0.0000 
  8 H        3.8530    -0.0560    -0.7410 H     1 <1>   0.0000 
  9 N       -0.4750     0.5780     0.0400 N.pl3 1 <1>  -0.8380 
 10 C       -1.7290    -0.1720     0.0110 C.3   1 <1>   0.3690 
 11 H       -2.3630     0.1180     0.8560 H     1 <1>   0.0000 
 12 H       -2.2690     0.0330    -0.9200 H     1 <1>   0.0000 
 13 H       -1.5670    -1.2530     0.0730 H     1 <1>   0.0000 
 14 C       -0.6210     2.0310     0.0270 C.3   1 <1>   0.3690 
 15 H       -0.1200     2.4600    -0.8480 H     1 <1>   0.0000 
 16 H       -0.1890     2.4670     0.9340 H     1 <1>   0.0000 
 17 H       -1.6740     2.3330    -0.0160 H     1 <1>   0.0000 
@<TRIPOS>BOND
  1   1   2  1   
  2   2   3  2   
  3   2   9  1   
  4   3   4  1   
  5   3   5  1   
  6   5   6  1   
  7   5   7  1   
  8   5   8  1   
  9   9  10  1   
 10   9  14  1   
 11  10  11  1   
 12  10  12  1   
 13  10  13  1   
 14  14  15  1   
 15  14  16  1   
 16  14  17  1   
@<TRIPOS>SUBSTRUCTURE
  1 ****   2 GROUP 4 **** **** 0

# MOE 2022.02 (io_trps.svl 2020.11)

@<TRIPOS>MOLECULE
ACT084
36 35 1 0 0 
SMALL
USER_CHARGES


@<TRIPOS>ATOM
  1 H        0.4260     0.4220    -0.8530 H     1 <1>   0.1500 
  2 C        0.4600     1.3540    -0.2940 C.2   1 <1>  -0.1500 
  3 C       -0.6590     1.8320     0.2760 C.2   1 <1>  -0.1500 
  4 H       -0.6010     2.7830     0.8020 H     1 <1>   0.1500 
  5 C       -1.9770     1.1790     0.2280 C.2   1 <1>   0.1000 
  6 C       -3.1190     1.9050     0.3400 C.2   1 <1>   0.0290 
  7 C       -3.1800     3.3860     0.3980 C.2   1 <1>   0.7060 
  8 O       -2.3980     4.1580    -0.1330 O.2   1 <1>  -0.5700 
  9 O       -4.2360     3.7550     1.1750 O.3   1 <1>  -0.4300 
 10 C       -4.4100     5.1680     1.2880 C.3   1 <1>   0.2800 
 11 H       -3.5400     5.6240     1.7710 H     1 <1>   0.0000 
 12 H       -4.5870     5.6130     0.3040 H     1 <1>   0.0000 
 13 H       -5.2890     5.3520     1.9130 H     1 <1>   0.0000 
 14 C       -4.4040     1.1660     0.4420 C.2   1 <1>   0.4950 
 15 O       -5.2150     1.1840    -0.4840 O.2   1 <1>  -0.5700 
 16 C       -4.6910     0.4390     1.7300 C.3   1 <1>   0.0610 
 17 H       -5.6260     0.8170     2.1520 H     1 <1>   0.0000 
 18 H       -4.7760    -0.6320     1.5320 H     1 <1>   0.0000 
 19 H       -3.8960     0.6010     2.4640 H     1 <1>   0.0000 
 20 N       -1.9610    -0.2260     0.1190 N.pl3 1 <1>  -0.8380 
 21 C       -2.6340    -0.9330    -0.9720 C.3   1 <1>   0.3690 
 22 H       -2.9430    -0.2470    -1.7690 H     1 <1>   0.0000 
 23 H       -3.5180    -1.4600    -0.5990 H     1 <1>   0.0000 
 24 H       -1.9580    -1.6690    -1.4190 H     1 <1>   0.0000 
 25 C       -1.2450    -1.0790     1.0670 C.3   1 <1>   0.3690 
 26 H       -1.8820    -1.9130     1.3810 H     1 <1>   0.0000 
 27 H       -0.9590    -0.5300     1.9710 H     1 <1>   0.0000 
 28 H       -0.3410    -1.4900     0.6070 H     1 <1>   0.0000 
 29 C        1.7360     2.0290    -0.2180 C.2   1 <1>  -0.1500 
 30 H        1.7700     2.9790     0.3120 H     1 <1>   0.1500 
 31 C        2.8540     1.5330    -0.7680 C.2   1 <1>  -0.2880 
 32 H        2.8280     0.5860    -1.3020 H     1 <1>   0.1500 
 33 C        4.1850     2.2100    -0.7000 C.3   1 <1>   0.1380 
 34 H        4.9080     1.5570    -0.2020 H     1 <1>   0.0000 
 35 H        4.5490     2.4190    -1.7110 H     1 <1>   0.0000 
 36 H        4.1420     3.1550    -0.1500 H     1 <1>   0.0000 
@<TRIPOS>BOND
  1   1   2  1   
  2   2   3  2   
  3   2  29  1   
  4   3   4  1   
  5   3   5  1   
  6   5   6  2   
  7   5  20  1   
  8   6   7  1   
  9   6  14  1   
 10   7   8  2   
 11   7   9  1   
 12   9  10  1   
 13  10  11  1   
 14  10  12  1   
 15  10  13  1   
 16  14  15  2   
 17  14  16  1   
 18  16  17  1   
 19  16  18  1   
 20  16  19  1   
 21  20  21  1   
 22  20  25  1   
 23  21  22  1   
 24  21  23  1   
 25  21  24  1   
 26  25  26  1   
 27  25  27  1   
 28  25  28  1   
 29  29  30  1   
 30  29  31  2   
 31  31  32  1   
 32  31  33  1   
 33  33  34  1   
 34  33  35  1   
 35  33  36  1   
@<TRIPOS>SUBSTRUCTURE
  1 ****   5 GROUP 4 **** **** 0

# MOE 2022.02 (io_trps.svl 2020.11)

@<TRIPOS>MOLECULE
ACT085
26 27 1 0 0 
SMALL
USER_CHARGES


@<TRIPOS>ATOM
  1 H        6.1060     2.8900     2.0660 H     1 <1>   0.0600 
  2 C        6.8120     3.2160     1.2830 C.2   1 <1>   0.4490 
  3 O        7.9290     3.6290     1.5900 O.2   1 <1>  -0.5700 
  4 C        6.3180     3.1560    -0.1420 C.3   1 <1>   0.3610 
  5 H        6.2650     4.1760    -0.5350 H     1 <1>   0.0000 
  6 H        7.0060     2.5570    -0.7450 H     1 <1>   0.0000 
  7 N        4.9960     2.5470    -0.1620 N.am  1 <1>  -0.2980 
  8 N        4.9650     1.1530    -0.3520 N.2   1 <1>  -0.5120 
  9 C        3.8240     0.5290    -0.4020 C.2   1 <1>   0.4760 
 10 H        3.7970    -0.5610    -0.5550 H     1 <1>   0.0600 
 11 C        2.5960     1.2560    -0.2520 C.2   1 <1>  -0.0860 
 12 C        1.2830     0.8360    -0.2630 C.2   1 <1>  -0.3320 
 13 C        0.6790    -0.5090    -0.4320 C.3   1 <1>   0.1800 
 14 H       -0.3330    -0.4410    -0.8450 H     1 <1>   0.0000 
 15 H        0.6230    -1.0220     0.5330 H     1 <1>   0.0000 
 16 H        1.2770    -1.1220    -1.1140 H     1 <1>   0.0000 
 17 N        0.5070     1.9590    -0.0620 N.pl3 1 <1>   0.0330 
 18 H       -0.5040     1.9660    -0.0180 H     1 <1>   0.2700 
 19 C        1.3070     3.0730     0.0730 C.2   1 <1>  -0.3320 
 20 C        0.7460     4.4280     0.3020 C.3   1 <1>   0.1800 
 21 H        1.0500     5.1080    -0.5000 H     1 <1>   0.0000 
 22 H        1.1050     4.8330     1.2540 H     1 <1>   0.0000 
 23 H       -0.3480     4.4110     0.3340 H     1 <1>   0.0000 
 24 C        2.6150     2.6480    -0.0460 C.2   1 <1>  -0.0860 
 25 C        3.8660     3.3740     0.0150 C.2   1 <1>   0.7160 
 26 O        3.9310     4.5820     0.2220 O.2   1 <1>  -0.5700 
@<TRIPOS>BOND
  1   1   2  1   
  2   2   3  2   
  3   2   4  1   
  4   4   5  1   
  5   4   6  1   
  6   4   7  1   
  7   7   8  1   
  8   7  25  am  
  9   8   9  2   
 10   9  10  1   
 11   9  11  1   
 12  11  12  2   
 13  11  24  1   
 14  12  13  1   
 15  12  17  1   
 16  13  14  1   
 17  13  15  1   
 18  13  16  1   
 19  17  18  1   
 20  17  19  1   
 21  19  20  1   
 22  19  24  2   
 23  20  21  1   
 24  20  22  1   
 25  20  23  1   
 26  24  25  1   
 27  25  26  2   
@<TRIPOS>SUBSTRUCTURE
  1 ****  24 GROUP 4 **** **** 0

# MOE 2022.02 (io_trps.svl 2020.11)

@<TRIPOS>MOLECULE
ACT086
16 16 1 0 0 
SMALL
USER_CHARGES


@<TRIPOS>ATOM
  1 H        0.4560     3.4510     0.0140 H     1 <1>   0.1500 
  2 C       -0.0790     2.5040     0.0110 C.ar  1 <1>  -0.1500 
  3 C       -1.4780     2.5150     0.0020 C.ar  1 <1>  -0.1500 
  4 H       -1.9990     3.4700    -0.0010 H     1 <1>   0.1500 
  5 C       -2.1740     1.3020    -0.0020 C.ar  1 <1>   0.1330 
  6 N       -3.6410     1.3030    -0.0130 N.pl3 1 <1>   0.9070 
  7 O       -4.2180     2.4000    -0.0140 O.2   1 <1>  -0.5200 
  8 O       -4.2200     0.2070    -0.0190 O.2   1 <1>  -0.5200 
  9 C       -1.4800     0.0870     0.0030 C.ar  1 <1>  -0.1500 
 10 H       -2.0040    -0.8660     0.0000 H     1 <1>   0.1500 
 11 C       -0.0820     0.0950     0.0120 C.ar  1 <1>  -0.1500 
 12 H        0.4520    -0.8530     0.0150 H     1 <1>   0.1500 
 13 C        0.6300     1.2990     0.0160 C.ar  1 <1>   0.1000 
 14 N        2.0100     1.2980     0.0240 N.pl3 1 <1>  -0.9000 
 15 H        2.5290     0.4300     0.0270 H     1 <1>   0.4000 
 16 H        2.5300     2.1650     0.0270 H     1 <1>   0.4000 
@<TRIPOS>BOND
  1   1   2  1   
  2   2   3  ar  
  3   2  13  ar  
  4   3   4  1   
  5   3   5  ar  
  6   5   6  1   
  7   5   9  ar  
  8   6   7  2   
  9   6   8  2   
 10   9  10  1   
 11   9  11  ar  
 12  11  12  1   
 13  11  13  ar  
 14  13  14  1   
 15  14  15  1   
 16  14  16  1   
@<TRIPOS>SUBSTRUCTURE
  1 ****   5 GROUP 4 **** **** 0

# MOE 2022.02 (io_trps.svl 2020.11)

@<TRIPOS>MOLECULE
ACT087
23 23 1 0 0 
SMALL
USER_CHARGES


@<TRIPOS>ATOM
  1 H        8.9040     3.5480    -0.9970 H     1 <1>   0.0600 
  2 C        9.1000     2.6660    -0.3630 C.2   1 <1>   0.4490 
  3 O       10.1870     2.5220     0.1900 O.2   1 <1>  -0.5700 
  4 C        8.0030     1.6340    -0.3250 C.3   1 <1>   0.3410 
  5 H        8.0060     1.1100    -1.2860 H     1 <1>   0.0000 
  6 H        8.1930     0.9510     0.5100 H     1 <1>   0.0000 
  7 O        6.7860     2.3460    -0.1390 O.3   1 <1>  -0.3630 
  8 C        5.6370     1.6050    -0.0970 C.ar  1 <1>   0.0820 
  9 C        4.4670     2.3560     0.0510 C.ar  1 <1>  -0.1500 
 10 H        4.5250     3.4400     0.1240 H     1 <1>   0.1500 
 11 C        3.2210     1.7290     0.1070 C.ar  1 <1>  -0.1500 
 12 H        2.3210     2.3290     0.2210 H     1 <1>   0.1500 
 13 C        3.1420     0.3390     0.0160 C.ar  1 <1>   0.0860 
 14 C        1.8390    -0.3520     0.0730 C.2   1 <1>   0.3040 
 15 H        1.8590    -1.4560     0.0000 H     1 <1>   0.0600 
 16 N        0.7250     0.2990     0.1980 N.2   1 <1>  -0.5030 
 17 N       -0.3630    -0.5020     0.2360 N.pl3 1 <1>  -0.5690 
 18 H       -1.1940     0.0580     0.2980 H     1 <1>   0.3110 
 19 H       -0.3300    -1.1330     1.0150 H     1 <1>   0.3110 
 20 C        4.3060    -0.4200    -0.1310 C.ar  1 <1>  -0.1500 
 21 H        4.2560    -1.5040    -0.2030 H     1 <1>   0.1500 
 22 C        5.5530     0.2140    -0.1870 C.ar  1 <1>  -0.1500 
 23 H        6.4340    -0.4100    -0.2990 H     1 <1>   0.1500 
@<TRIPOS>BOND
  1   1   2  1   
  2   2   3  2   
  3   2   4  1   
  4   4   5  1   
  5   4   6  1   
  6   4   7  1   
  7   7   8  1   
  8   8   9  ar  
  9   8  22  ar  
 10   9  10  1   
 11   9  11  ar  
 12  11  12  1   
 13  11  13  ar  
 14  13  14  1   
 15  13  20  ar  
 16  14  15  1   
 17  14  16  2   
 18  16  17  1   
 19  17  18  1   
 20  17  19  1   
 21  20  21  1   
 22  20  22  ar  
 23  22  23  1   
@<TRIPOS>SUBSTRUCTURE
  1 ****   8 GROUP 4 **** **** 0

# MOE 2022.02 (io_trps.svl 2020.11)

@<TRIPOS>MOLECULE
ACT088
36 37 1 0 0 
SMALL
USER_CHARGES


@<TRIPOS>ATOM
  1 H        0.4300    -0.7740     0.2970 H     1 <1>   0.4500 
  2 O        1.1570    -1.2970    -0.0800 O.3   1 <1>  -0.5320 
  3 C        2.2790    -0.5240    -0.1200 C.ar  1 <1>   0.0820 
  4 C        3.4310    -1.0870    -0.6590 C.ar  1 <1>  -0.1500 
  5 H        3.4080    -2.1040    -1.0400 H     1 <1>   0.1500 
  6 C        4.6070    -0.3360    -0.7220 C.ar  1 <1>  -0.1500 
  7 H        5.4850    -0.7780    -1.1840 H     1 <1>   0.1500 
  8 C        4.6220     0.9780    -0.2320 C.ar  1 <1>   0.0860 
  9 C        5.8490     1.8200    -0.2730 C.2   1 <1>   0.5440 
 10 O        5.7340     3.0300    -0.4400 O.2   1 <1>  -0.5700 
 11 N        7.0400     1.1360    -0.0760 N.am  1 <1>  -0.3680 
 12 H        7.0450     0.1460     0.1310 H     1 <1>   0.3700 
 13 N        8.2240     1.8070    -0.1450 N.2   1 <1>  -0.5120 
 14 C        9.2840     1.0970     0.0730 C.2   1 <1>   0.3040 
 15 H        9.2240     0.0180     0.3020 H     1 <1>   0.0600 
 16 C       10.6350     1.6900     0.0280 C.ar  1 <1>   0.0860 
 17 C       11.7430     0.8730     0.2650 C.ar  1 <1>  -0.1500 
 18 H       11.6190    -0.1850     0.4830 H     1 <1>   0.1500 
 19 C       13.0330     1.4150     0.2240 C.ar  1 <1>  -0.1500 
 20 H       13.8690     0.7490     0.4160 H     1 <1>   0.1500 
 21 C       13.2170     2.7710    -0.0540 C.ar  1 <1>   0.0820 
 22 O       14.4170     3.4220    -0.1250 O.3   1 <1>  -0.3630 
 23 C       15.5870     2.6390     0.0790 C.3   1 <1>   0.3410 
 24 H       15.6780     1.8660    -0.6910 H     1 <1>   0.0000 
 25 H       15.6060     2.2110     1.0870 H     1 <1>   0.0000 
 26 C       16.7590     3.5730    -0.0700 C.2   1 <1>   0.4490 
 27 H       16.7240     4.2480    -0.9420 H     1 <1>   0.0600 
 28 O       17.7460     3.5460     0.6610 O.2   1 <1>  -0.5700 
 29 C       12.1020     3.5810    -0.2870 C.ar  1 <1>  -0.1500 
 30 H       12.2350     4.6390    -0.5010 H     1 <1>   0.1500 
 31 C       10.8120     3.0470    -0.2480 C.ar  1 <1>  -0.1500 
 32 H        9.9550     3.6920    -0.4320 H     1 <1>   0.1500 
 33 C        3.4480     1.5380     0.2910 C.ar  1 <1>  -0.1500 
 34 H        3.4510     2.5650     0.6530 H     1 <1>   0.1500 
 35 C        2.2740     0.7840     0.3530 C.ar  1 <1>  -0.1500 
 36 H        1.3760     1.2340     0.7660 H     1 <1>   0.1500 
@<TRIPOS>BOND
  1   1   2  1   
  2   2   3  1   
  3   3   4  ar  
  4   3  35  ar  
  5   4   5  1   
  6   4   6  ar  
  7   6   7  1   
  8   6   8  ar  
  9   8   9  1   
 10   8  33  ar  
 11   9  10  2   
 12   9  11  am  
 13  11  12  1   
 14  11  13  1   
 15  13  14  2   
 16  14  15  1   
 17  14  16  1   
 18  16  17  ar  
 19  16  31  ar  
 20  17  18  1   
 21  17  19  ar  
 22  19  20  1   
 23  19  21  ar  
 24  21  22  1   
 25  21  29  ar  
 26  22  23  1   
 27  23  24  1   
 28  23  25  1   
 29  23  26  1   
 30  26  27  1   
 31  26  28  2   
 32  29  30  1   
 33  29  31  ar  
 34  31  32  1   
 35  33  34  1   
 36  33  35  ar  
 37  35  36  1   
@<TRIPOS>SUBSTRUCTURE
  1 ****  13 GROUP 4 **** **** 0

# MOE 2022.02 (io_trps.svl 2020.11)

@<TRIPOS>MOLECULE
ACT089
17 17 1 0 0 
SMALL
USER_CHARGES


@<TRIPOS>ATOM
  1 H        7.0340     0.2880    -0.1570 H     1 <1>   0.0600 
  2 C        6.9600     1.3510     0.1340 C.2   1 <1>   0.4490 
  3 O        7.9710     1.9960     0.4020 O.2   1 <1>  -0.5700 
  4 C        5.5700     1.9110     0.2530 C.3   1 <1>   0.2910 
  5 H        5.0620     1.3900     1.0690 H     1 <1>   0.0000 
  6 H        5.6280     2.9780     0.4850 H     1 <1>   0.0000 
  7 S        4.6980     1.6590    -1.3190 S.3   1 <1>  -0.2850 
  8 C        3.1230     2.3210    -0.8970 C.2   1 <1>   0.0550 
  9 C        2.0380     1.6420    -0.3950 C.2   1 <1>   0.1200 
 10 N        1.9430     0.2610    -0.0400 N.pl3 1 <1>   0.9600 
 11 O        2.8450    -0.1880     0.6810 O.2   1 <1>  -0.5200 
 12 O        0.9760    -0.3740    -0.4760 O.2   1 <1>  -0.5200 
 13 S        0.6810     2.6360    -0.1460 S.3   1 <1>  -0.0800 
 14 C        1.5240     4.0100    -0.7300 C.2   1 <1>  -0.1100 
 15 H        1.0320     4.9720    -0.7770 H     1 <1>   0.1500 
 16 C        2.8170     3.7020    -1.1020 C.2   1 <1>  -0.1500 
 17 H        3.5040     4.4380    -1.5050 H     1 <1>   0.1500 
@<TRIPOS>BOND
  1   1   2  1   
  2   2   3  2   
  3   2   4  1   
  4   4   5  1   
  5   4   6  1   
  6   4   7  1   
  7   7   8  1   
  8   8   9  2   
  9   8  16  1   
 10   9  10  1   
 11   9  13  1   
 12  10  11  2   
 13  10  12  2   
 14  13  14  1   
 15  14  15  1   
 16  14  16  2   
 17  16  17  1   
@<TRIPOS>SUBSTRUCTURE
  1 ****   8 GROUP 4 **** **** 0

# MOE 2022.02 (io_trps.svl 2020.11)

@<TRIPOS>MOLECULE
ACT090
21 22 1 0 0 
SMALL
USER_CHARGES


@<TRIPOS>ATOM
  1 H        0.5360    -0.9930    -0.4200 H     1 <1>   0.1500 
  2 C       -0.3630    -0.3950    -0.3070 C.ar  1 <1>  -0.1500 
  3 C       -0.3100     0.9870    -0.1060 C.ar  1 <1>   0.0820 
  4 O        0.8280     1.7430    -0.0290 O.3   1 <1>  -0.3630 
  5 C        2.0670     1.0590    -0.1730 C.3   1 <1>   0.2800 
  6 H        2.1460     0.5860    -1.1570 H     1 <1>   0.0000 
  7 H        2.2090     0.3280     0.6300 H     1 <1>   0.0000 
  8 H        2.8680     1.8000    -0.0950 H     1 <1>   0.0000 
  9 C       -1.5000     1.7130     0.0350 C.ar  1 <1>  -0.1500 
 10 H       -1.4450     2.7880     0.1910 H     1 <1>   0.1500 
 11 C       -2.7380     1.0680    -0.0230 C.ar  1 <1>   0.0280 
 12 C       -3.9940     1.7860     0.1200 C.2   1 <1>  -0.1780 
 13 H       -3.9760     2.8590     0.2760 H     1 <1>   0.1500 
 14 C       -5.1460     1.1120     0.0560 C.2   1 <1>  -0.1360 
 15 H       -6.1040     1.6080     0.1570 H     1 <1>   0.1500 
 16 C       -5.1990    -0.3460    -0.1560 C.2   1 <1>   0.7060 
 17 O       -6.2750    -0.9310    -0.2090 O.2   1 <1>  -0.5700 
 18 O       -3.9870    -1.0080    -0.2910 O.3   1 <1>  -0.2320 
 19 C       -2.7670    -0.3080    -0.2240 C.ar  1 <1>   0.0820 
 20 C       -1.5970    -1.0480    -0.3670 C.ar  1 <1>  -0.1500 
 21 H       -1.6430    -2.1220    -0.5230 H     1 <1>   0.1500 
@<TRIPOS>BOND
  1   1   2  1   
  2   2   3  ar  
  3   2  20  ar  
  4   3   4  1   
  5   3   9  ar  
  6   4   5  1   
  7   5   6  1   
  8   5   7  1   
  9   5   8  1   
 10   9  10  1   
 11   9  11  ar  
 12  11  12  1   
 13  11  19  ar  
 14  12  13  1   
 15  12  14  2   
 16  14  15  1   
 17  14  16  1   
 18  16  17  2   
 19  16  18  1   
 20  18  19  1   
 21  19  20  ar  
 22  20  21  1   
@<TRIPOS>SUBSTRUCTURE
  1 ****  11 GROUP 4 **** **** 0

# MOE 2022.02 (io_trps.svl 2020.11)

@<TRIPOS>MOLECULE
ACT091
14 14 1 0 0 
SMALL
USER_CHARGES


@<TRIPOS>ATOM
  1 H       -0.8850    -1.1730    -0.0030 H     1 <1>   0.1500 
  2 C       -0.8850    -0.0900    -0.0030 C.ar  1 <1>  -0.1500 
  3 C        0.3100     0.6190    -0.0040 C.ar  1 <1>   0.1900 
  4 F        1.4690    -0.0540    -0.0050 F     1 <1>  -0.1900 
  5 C        0.3130     2.0140    -0.0050 C.ar  1 <1>   0.1900 
  6 F        1.4840     2.6710    -0.0060 F     1 <1>  -0.1900 
  7 C       -0.8850     2.7410    -0.0040 C.ar  1 <1>   0.1000 
  8 N       -0.8850     4.1310    -0.0040 N.pl3 1 <1>  -0.9000 
  9 H       -0.0090     4.6400    -0.0050 H     1 <1>   0.4000 
 10 H       -1.7620     4.6390    -0.0030 H     1 <1>   0.4000 
 11 C       -2.0820     2.0140    -0.0020 C.ar  1 <1>   0.1900 
 12 F       -3.2530     2.6710    -0.0010 F     1 <1>  -0.1900 
 13 C       -2.0790     0.6190    -0.0020 C.ar  1 <1>   0.1900 
 14 F       -3.2380    -0.0540    -0.0010 F     1 <1>  -0.1900 
@<TRIPOS>BOND
  1   1   2  1   
  2   2   3  ar  
  3   2  13  ar  
  4   3   4  1   
  5   3   5  ar  
  6   5   6  1   
  7   5   7  ar  
  8   7   8  1   
  9   7  11  ar  
 10   8   9  1   
 11   8  10  1   
 12  11  12  1   
 13  11  13  ar  
 14  13  14  1   
@<TRIPOS>SUBSTRUCTURE
  1 ****   7 GROUP 4 **** **** 0

# MOE 2022.02 (io_trps.svl 2020.11)

@<TRIPOS>MOLECULE
ACT092
15 15 1 0 0 
SMALL
USER_CHARGES


@<TRIPOS>ATOM
  1 H       -3.4280     3.2030     0.4570 H     1 <1>   0.1500 
  2 C       -2.4960     2.6590     0.3340 C.ar  1 <1>  -0.1500 
  3 C       -2.5030     1.2650     0.2590 C.ar  1 <1>  -0.1500 
  4 H       -3.4440     0.7240     0.3240 H     1 <1>   0.1500 
  5 C       -1.3060     0.5620     0.1020 C.ar  1 <1>  -0.1500 
  6 H       -1.3300    -0.5240     0.0500 H     1 <1>   0.1500 
  7 C       -0.0890     1.2490     0.0110 C.ar  1 <1>  -0.1440 
  8 C        1.2080     0.5140    -0.1340 C.3   1 <1>   0.1440 
  9 H        1.0450    -0.5280    -0.4300 H     1 <1>   0.0000 
 10 H        1.7520     0.5210     0.8160 H     1 <1>   0.0000 
 11 H        1.8290     0.9790    -0.9070 H     1 <1>   0.0000 
 12 C       -0.1000     2.6430     0.0990 C.ar  1 <1>   0.1900 
 13 F        1.0540     3.3240     0.0320 F     1 <1>  -0.1900 
 14 C       -1.2890     3.3500     0.2560 C.ar  1 <1>  -0.1500 
 15 H       -1.2640     4.4330     0.3180 H     1 <1>   0.1500 
@<TRIPOS>BOND
  1   1   2  1   
  2   2   3  ar  
  3   2  14  ar  
  4   3   4  1   
  5   3   5  ar  
  6   5   6  1   
  7   5   7  ar  
  8   7   8  1   
  9   7  12  ar  
 10   8   9  1   
 11   8  10  1   
 12   8  11  1   
 13  12  13  1   
 14  12  14  ar  
 15  14  15  1   
@<TRIPOS>SUBSTRUCTURE
  1 ****  12 GROUP 4 **** **** 0

# MOE 2022.02 (io_trps.svl 2020.11)

@<TRIPOS>MOLECULE
ACT093
18 18 1 0 0 
SMALL
USER_CHARGES


@<TRIPOS>ATOM
  1 H       -1.8000     4.3100     0.2020 H     1 <1>   0.1500 
  2 C       -1.7580     3.2260     0.1480 C.ar  1 <1>  -0.1500 
  3 C       -0.5260     2.5720     0.1960 C.ar  1 <1>  -0.1500 
  4 H        0.3700     3.1760     0.2870 H     1 <1>   0.1500 
  5 C       -0.4750     1.1800     0.1270 C.ar  1 <1>   0.0820 
  6 O        0.6590     0.4150     0.1620 O.3   1 <1>  -0.3630 
  7 C        1.8960     1.1070     0.2780 C.3   1 <1>   0.2800 
  8 H        2.6970     0.3600     0.2880 H     1 <1>   0.0000 
  9 H        2.0640     1.7630    -0.5830 H     1 <1>   0.0000 
 10 H        1.9500     1.6650     1.2180 H     1 <1>   0.0000 
 11 C       -1.6670     0.4550     0.0110 C.ar  1 <1>  -0.1500 
 12 H       -1.6160    -0.6290    -0.0420 H     1 <1>   0.1500 
 13 C       -2.9070     1.0980    -0.0380 C.ar  1 <1>   0.1000 
 14 N       -4.0760     0.3700    -0.1530 N.pl3 1 <1>  -0.9000 
 15 H       -4.9730     0.8340    -0.1890 H     1 <1>   0.4000 
 16 H       -4.0480    -0.6390    -0.2020 H     1 <1>   0.4000 
 17 C       -2.9400     2.4910     0.0320 C.ar  1 <1>  -0.1500 
 18 H       -3.8890     3.0180    -0.0030 H     1 <1>   0.1500 
@<TRIPOS>BOND
  1   1   2  1   
  2   2   3  ar  
  3   2  17  ar  
  4   3   4  1   
  5   3   5  ar  
  6   5   6  1   
  7   5  11  ar  
  8   6   7  1   
  9   7   8  1   
 10   7   9  1   
 11   7  10  1   
 12  11  12  1   
 13  11  13  ar  
 14  13  14  1   
 15  13  17  ar  
 16  14  15  1   
 17  14  16  1   
 18  17  18  1   
@<TRIPOS>SUBSTRUCTURE
  1 ****   5 GROUP 4 **** **** 0

# MOE 2022.02 (io_trps.svl 2020.11)

@<TRIPOS>MOLECULE
ACT094
16 15 1 0 0 
SMALL
USER_CHARGES


@<TRIPOS>ATOM
  1 H        6.2180    -0.8700     0.4090 H     1 <1>   0.0000 
  2 C        6.1600    -1.8600    -0.0540 C.3   1 <1>   0.2800 
  3 H        6.9150    -2.5030     0.4070 H     1 <1>   0.0000 
  4 H        6.3650    -1.8000    -1.1280 H     1 <1>   0.0000 
  5 O        4.8780    -2.4470     0.1780 O.3   1 <1>  -0.4300 
  6 C        3.8380    -1.7430    -0.3540 C.2   1 <1>   0.6590 
  7 O        3.9460    -0.6930    -0.9690 O.2   1 <1>  -0.5700 
  8 C        2.5520    -2.4490    -0.0510 C.3   1 <1>   0.1220 
  9 H        2.4340    -2.5410     1.0340 H     1 <1>   0.0000 
 10 H        2.5990    -3.4530    -0.4860 H     1 <1>   0.0000 
 11 C        1.3310    -1.7590    -0.5960 C.2   1 <1>   0.4480 
 12 O        0.6160    -2.3040    -1.4380 O.2   1 <1>  -0.5700 
 13 C        0.9870    -0.3960    -0.0500 C.3   1 <1>   0.0610 
 14 H        1.6500     0.3610    -0.4730 H     1 <1>   0.0000 
 15 H        1.0690    -0.4040     1.0400 H     1 <1>   0.0000 
 16 H       -0.0450    -0.1500    -0.3130 H     1 <1>   0.0000 
@<TRIPOS>BOND
  1   1   2  1   
  2   2   3  1   
  3   2   4  1   
  4   2   5  1   
  5   5   6  1   
  6   6   7  2   
  7   6   8  1   
  8   8   9  1   
  9   8  10  1   
 10   8  11  1   
 11  11  12  2   
 12  11  13  1   
 13  13  14  1   
 14  13  15  1   
 15  13  16  1   
@<TRIPOS>SUBSTRUCTURE
  1 ****   6 GROUP 4 **** **** 0

# MOE 2022.02 (io_trps.svl 2020.11)

@<TRIPOS>MOLECULE
ACT095
12 11 1 0 0 
SMALL
USER_CHARGES


@<TRIPOS>ATOM
  1 H        2.3710    -2.2200    -1.2100 H     1 <1>   0.0600 
  2 C        2.6530    -1.7820    -0.2370 C.2   1 <1>   0.4490 
  3 O        3.7870    -1.9320     0.2120 O.2   1 <1>  -0.5700 
  4 C        1.5570    -1.1170     0.5390 C.3   1 <1>   0.1220 
  5 H        2.0080    -0.5390     1.3520 H     1 <1>   0.0000 
  6 H        0.9120    -1.8960     0.9560 H     1 <1>   0.0000 
  7 C        0.7110    -0.1990    -0.3000 C.2   1 <1>   0.4480 
  8 O        0.7670    -0.1970    -1.5290 O.2   1 <1>  -0.5700 
  9 C       -0.2460     0.6990     0.4400 C.3   1 <1>   0.0610 
 10 H       -0.9430     0.0900     1.0210 H     1 <1>   0.0000 
 11 H        0.3140     1.3660     1.0990 H     1 <1>   0.0000 
 12 H       -0.8130     1.3020    -0.2740 H     1 <1>   0.0000 
@<TRIPOS>BOND
  1   1   2  1   
  2   2   3  2   
  3   2   4  1   
  4   4   5  1   
  5   4   6  1   
  6   4   7  1   
  7   7   8  2   
  8   7   9  1   
  9   9  10  1   
 10   9  11  1   
 11   9  12  1   
@<TRIPOS>SUBSTRUCTURE
  1 ****   4 GROUP 4 **** **** 0

# MOE 2022.02 (io_trps.svl 2020.11)

@<TRIPOS>MOLECULE
ACT096
30 31 1 0 0 
SMALL
USER_CHARGES


@<TRIPOS>ATOM
  1 H        1.2540    -0.8310    -4.1900 H     1 <1>   0.0600 
  2 C        0.4920    -0.8220    -3.3930 C.2   1 <1>   0.4240 
  3 O       -0.5860    -0.2620    -3.5470 O.2   1 <1>  -0.5700 
  4 C        0.8380    -1.5160    -2.1350 C.ar  1 <1>   0.0860 
  5 C       -0.0700    -1.5430    -1.0800 C.ar  1 <1>  -0.1500 
  6 H       -1.0390    -1.0560    -1.1690 H     1 <1>   0.1500 
  7 C        0.2770    -2.1970     0.0990 C.ar  1 <1>  -0.1500 
  8 H       -0.4310    -2.2060     0.9270 H     1 <1>   0.1500 
  9 C        1.5310    -2.8230     0.2270 C.ar  1 <1>   0.0860 
 10 C        1.8270    -3.4400     1.5430 C.2   1 <1>   0.4240 
 11 H        2.8700    -3.7110     1.7620 H     1 <1>   0.0600 
 12 O        0.9540    -3.6380     2.3800 O.2   1 <1>  -0.5700 
 13 C        2.4520    -2.8180    -0.8440 C.ar  1 <1>   0.1170 
 14 N        3.6940    -3.5010    -0.7410 N.am  1 <1>  -0.5470 
 15 H        3.8600    -4.0590     0.0880 H     1 <1>   0.3700 
 16 C        4.7480    -3.4960    -1.6470 C.2   1 <1>   0.5690 
 17 O        4.8060    -2.8470    -2.6880 O.2   1 <1>  -0.5700 
 18 C        5.8880    -4.4210    -1.2430 C.3   1 <1>   0.2410 
 19 H        6.6040    -4.4810    -2.0710 H     1 <1>   0.0000 
 20 H        5.4890    -5.4300    -1.0870 H     1 <1>   0.0000 
 21 C        6.5670    -3.8850    -0.0190 C.2   1 <1>  -0.1400 
 22 S        6.2700    -4.5940     1.5130 S.3   1 <1>  -0.0800 
 23 C        7.3200    -3.4950     2.2940 C.2   1 <1>  -0.1100 
 24 H        7.4740    -3.5530     3.3630 H     1 <1>   0.1500 
 25 C        7.8890    -2.6060     1.4100 C.2   1 <1>  -0.1500 
 26 H        8.5850    -1.8310     1.7080 H     1 <1>   0.1500 
 27 C        7.4560    -2.8330     0.0720 C.2   1 <1>  -0.1500 
 28 H        7.7810    -2.2480    -0.7820 H     1 <1>   0.1500 
 29 C        2.0830    -2.1480    -2.0220 C.ar  1 <1>  -0.1500 
 30 H        2.7440    -2.1150    -2.8820 H     1 <1>   0.1500 
@<TRIPOS>BOND
  1   1   2  1   
  2   2   3  2   
  3   2   4  1   
  4   4   5  ar  
  5   4  29  ar  
  6   5   6  1   
  7   5   7  ar  
  8   7   8  1   
  9   7   9  ar  
 10   9  10  1   
 11   9  13  ar  
 12  10  11  1   
 13  10  12  2   
 14  13  14  1   
 15  13  29  ar  
 16  14  15  1   
 17  14  16  am  
 18  16  17  2   
 19  16  18  1   
 20  18  19  1   
 21  18  20  1   
 22  18  21  1   
 23  21  22  1   
 24  21  27  2   
 25  22  23  1   
 26  23  24  1   
 27  23  25  2   
 28  25  26  1   
 29  25  27  1   
 30  27  28  1   
 31  29  30  1   
@<TRIPOS>SUBSTRUCTURE
  1 ****  14 GROUP 4 **** **** 0

# MOE 2022.02 (io_trps.svl 2020.11)

@<TRIPOS>MOLECULE
ACT097
31 31 1 0 0 
SMALL
USER_CHARGES


@<TRIPOS>ATOM
  1 H       -4.1190    -3.3930    -1.7600 H     1 <1>   0.1500 
  2 C       -3.6570    -2.5870    -1.1970 C.ar  1 <1>  -0.1500 
  3 C       -2.2700    -2.6140    -1.0040 C.ar  1 <1>  -0.1500 
  4 H       -1.7050    -3.4320    -1.4420 H     1 <1>   0.1500 
  5 C       -1.6100    -1.6020    -0.2990 C.ar  1 <1>   0.1000 
  6 N       -0.2330    -1.6270    -0.1130 N.pl3 1 <1>  -0.8380 
  7 C        0.5470    -0.3990    -0.2850 C.3   1 <1>   0.3690 
  8 H       -0.0910     0.4770    -0.4470 H     1 <1>   0.0000 
  9 H        1.1260    -0.1870     0.6190 H     1 <1>   0.0000 
 10 C        1.4740    -0.5100    -1.4880 C.3   1 <1>   0.0000 
 11 H        0.9090    -0.7340    -2.4000 H     1 <1>   0.0000 
 12 H        2.2200    -1.2980    -1.3520 H     1 <1>   0.0000 
 13 H        2.0090     0.4330    -1.6410 H     1 <1>   0.0000 
 14 C        0.4250    -2.9000     0.2000 C.3   1 <1>   0.3690 
 15 H        0.9390    -3.2790    -0.6910 H     1 <1>   0.0000 
 16 H       -0.3100    -3.6610     0.4900 H     1 <1>   0.0000 
 17 C        1.4070    -2.7770     1.3570 C.3   1 <1>   0.0000 
 18 H        1.7910    -3.7650     1.6300 H     1 <1>   0.0000 
 19 H        2.2660    -2.1530     1.0940 H     1 <1>   0.0000 
 20 H        0.9250    -2.3430     2.2390 H     1 <1>   0.0000 
 21 C       -2.4050    -0.5650     0.2100 C.ar  1 <1>  -0.1500 
 22 H       -1.9330     0.2200     0.7950 H     1 <1>   0.1500 
 23 C       -3.8030    -0.5220     0.0270 C.ar  1 <1>  -0.1440 
 24 C       -4.5790     0.6230     0.6150 C.3   1 <1>   0.1440 
 25 H       -3.9240     1.3380     1.1250 H     1 <1>   0.0000 
 26 H       -5.3000     0.2540     1.3510 H     1 <1>   0.0000 
 27 H       -5.1070     1.1690    -0.1730 H     1 <1>   0.0000 
 28 C       -4.4370    -1.5480    -0.6880 C.ar  1 <1>   0.1000 
 29 N       -5.8050    -1.5600    -0.9010 N.pl3 1 <1>  -0.9000 
 30 H       -6.3940    -0.8230    -0.5440 H     1 <1>   0.4000 
 31 H       -6.2350    -2.3120    -1.4210 H     1 <1>   0.4000 
@<TRIPOS>BOND
  1   1   2  1   
  2   2   3  ar  
  3   2  28  ar  
  4   3   4  1   
  5   3   5  ar  
  6   5   6  1   
  7   5  21  ar  
  8   6   7  1   
  9   6  14  1   
 10   7   8  1   
 11   7   9  1   
 12   7  10  1   
 13  10  11  1   
 14  10  12  1   
 15  10  13  1   
 16  14  15  1   
 17  14  16  1   
 18  14  17  1   
 19  17  18  1   
 20  17  19  1   
 21  17  20  1   
 22  21  22  1   
 23  21  23  ar  
 24  23  24  1   
 25  23  28  ar  
 26  24  25  1   
 27  24  26  1   
 28  24  27  1   
 29  28  29  1   
 30  29  30  1   
 31  29  31  1   
@<TRIPOS>SUBSTRUCTURE
  1 ****   5 GROUP 4 **** **** 0

# MOE 2022.02 (io_trps.svl 2020.11)

@<TRIPOS>MOLECULE
ACT098
31 31 1 0 0 
SMALL
USER_CHARGES


@<TRIPOS>ATOM
  1 H        6.7920    -4.3520     1.6470 H     1 <1>   0.5000 
  2 O        6.1440    -4.4280     0.9160 O.3   1 <1>  -0.6500 
  3 C        5.4750    -3.2560     0.9480 C.2   1 <1>   0.6590 
  4 O        5.7970    -2.3830     1.7380 O.2   1 <1>  -0.5700 
  5 C        4.3530    -3.1870    -0.0540 C.3   1 <1>   0.2910 
  6 H        4.1710    -2.1360    -0.2970 H     1 <1>   0.0000 
  7 H        4.6630    -3.6970    -0.9720 H     1 <1>   0.0000 
  8 S        2.8510    -3.9420     0.6310 S.3   1 <1>  -0.4600 
  9 C        1.7950    -3.8030    -0.8460 C.3   1 <1>   0.3740 
 10 H        1.7510    -2.7570    -1.1650 H     1 <1>   0.0000 
 11 H        2.2590    -4.3600    -1.6680 H     1 <1>   0.0000 
 12 C        0.4120    -4.3560    -0.5940 C.ar  1 <1>  -0.1440 
 13 C        0.2090    -5.7480    -0.6740 C.ar  1 <1>  -0.1500 
 14 H        1.0500    -6.3980    -0.9180 H     1 <1>   0.1500 
 15 C       -1.0490    -6.3120    -0.4310 C.ar  1 <1>   0.0860 
 16 C       -1.1970    -7.7940    -0.5330 C.2   1 <1>   0.4230 
 17 O       -0.2610    -8.4780    -0.9420 O.2   1 <1>  -0.5700 
 18 C       -2.5060    -8.4250    -0.1370 C.3   1 <1>   0.0610 
 19 H       -3.2910    -8.1370    -0.8410 H     1 <1>   0.0000 
 20 H       -2.7740    -8.1400     0.8840 H     1 <1>   0.0000 
 21 H       -2.4030    -9.5140    -0.1640 H     1 <1>   0.0000 
 22 C       -2.1190    -5.4740    -0.1090 C.ar  1 <1>  -0.1500 
 23 H       -3.1140    -5.8670     0.0770 H     1 <1>   0.1500 
 24 C       -1.9280    -4.0890    -0.0230 C.ar  1 <1>  -0.1500 
 25 H       -2.7900    -3.4770     0.2250 H     1 <1>   0.1500 
 26 C       -0.6700    -3.5230    -0.2560 C.ar  1 <1>   0.0820 
 27 O       -0.4010    -2.1810    -0.1980 O.3   1 <1>  -0.3630 
 28 C       -1.4150    -1.3320     0.3250 C.3   1 <1>   0.2800 
 29 H       -1.0010    -0.3210     0.3910 H     1 <1>   0.0000 
 30 H       -1.7090    -1.6370     1.3350 H     1 <1>   0.0000 
 31 H       -2.2790    -1.2940    -0.3460 H     1 <1>   0.0000 
@<TRIPOS>BOND
  1   1   2  1   
  2   2   3  1   
  3   3   4  2   
  4   3   5  1   
  5   5   6  1   
  6   5   7  1   
  7   5   8  1   
  8   8   9  1   
  9   9  10  1   
 10   9  11  1   
 11   9  12  1   
 12  12  13  ar  
 13  12  26  ar  
 14  13  14  1   
 15  13  15  ar  
 16  15  16  1   
 17  15  22  ar  
 18  16  17  2   
 19  16  18  1   
 20  18  19  1   
 21  18  20  1   
 22  18  21  1   
 23  22  23  1   
 24  22  24  ar  
 25  24  25  1   
 26  24  26  ar  
 27  26  27  1   
 28  27  28  1   
 29  28  29  1   
 30  28  30  1   
 31  28  31  1   
@<TRIPOS>SUBSTRUCTURE
  1 ****  12 GROUP 4 **** **** 0

# MOE 2022.02 (io_trps.svl 2020.11)

@<TRIPOS>MOLECULE
ACT099
20 21 1 0 0 
SMALL
USER_CHARGES


@<TRIPOS>ATOM
  1 H        1.9720    -0.2480    -0.0500 H     1 <1>   0.1500 
  2 C        1.0050    -0.7340    -0.0300 C.2   1 <1>  -0.1100 
  3 S       -0.3970     0.1830     0.3240 S.3   1 <1>  -0.0800 
  4 C       -1.3950    -1.1860     0.1630 C.2   1 <1>  -0.1400 
  5 C       -0.6870    -2.3340    -0.1460 C.2   1 <1>  -0.1810 
  6 C        0.7150    -2.0620    -0.2640 C.2   1 <1>   0.0190 
  7 C        1.7260    -3.0240    -0.5870 C.1   1 <1>   0.5380 
  8 N        2.5430    -3.8060    -0.8490 N.1   1 <1>  -0.5570 
  9 C       -1.3720    -3.6560    -0.3480 C.3   1 <1>   0.1810 
 10 H       -1.4050    -3.8680    -1.4240 H     1 <1>   0.0000 
 11 H       -0.8010    -4.4600     0.1290 H     1 <1>   0.0000 
 12 C       -2.8030    -3.6500     0.2130 C.3   1 <1>   0.0000 
 13 H       -2.7680    -3.7260     1.3080 H     1 <1>   0.0000 
 14 H       -3.3410    -4.5320    -0.1520 H     1 <1>   0.0000 
 15 C       -3.5610    -2.3740    -0.1770 C.3   1 <1>   0.0000 
 16 H       -3.6170    -2.3110    -1.2710 H     1 <1>   0.0000 
 17 H       -4.5910    -2.4210     0.1940 H     1 <1>   0.0000 
 18 C       -2.8760    -1.1140     0.3770 C.3   1 <1>   0.1800 
 19 H       -3.3020    -0.2270    -0.1050 H     1 <1>   0.0000 
 20 H       -3.0760    -1.0370     1.4530 H     1 <1>   0.0000 
@<TRIPOS>BOND
  1   1   2  1   
  2   2   3  1   
  3   2   6  2   
  4   3   4  1   
  5   4   5  2   
  6   4  18  1   
  7   5   6  1   
  8   5   9  1   
  9   6   7  1   
 10   7   8  3   
 11   9  10  1   
 12   9  11  1   
 13   9  12  1   
 14  12  13  1   
 15  12  14  1   
 16  12  15  1   
 17  15  16  1   
 18  15  17  1   
 19  15  18  1   
 20  18  19  1   
 21  18  20  1   
@<TRIPOS>SUBSTRUCTURE
  1 ****   5 GROUP 4 **** **** 0

# MOE 2022.02 (io_trps.svl 2020.11)

@<TRIPOS>MOLECULE
ACT100
34 35 1 0 0 
SMALL
USER_CHARGES


@<TRIPOS>ATOM
  1 H       -0.3760     6.4510     0.2390 H     1 <1>   0.1500 
  2 C       -0.5370     5.3970     0.4190 C.2   1 <1>  -0.0100 
  3 O       -1.6560     4.8690    -0.1400 O.3   1 <1>  -0.2800 
  4 C       -1.6810     3.5420     0.1920 C.2   1 <1>  -0.0400 
  5 C       -2.8260     2.7460    -0.3130 C.3   1 <1>   0.4800 
  6 H       -2.8740     1.7670     0.1750 H     1 <1>   0.0000 
  7 H       -2.7410     2.5910    -1.3940 H     1 <1>   0.0000 
  8 N       -4.0500     3.4680    -0.0570 N.am  1 <1>  -0.7300 
  9 H       -3.9730     4.4500     0.1790 H     1 <1>   0.3700 
 10 C       -5.2790     2.8550    -0.1520 C.2   1 <1>   0.5690 
 11 O       -5.4080     1.6710    -0.4530 O.2   1 <1>  -0.5700 
 12 C       -6.4480     3.7890     0.1510 C.3   1 <1>   0.3410 
 13 H       -6.3420     4.1370     1.1860 H     1 <1>   0.0000 
 14 H       -6.3910     4.6400    -0.5390 H     1 <1>   0.0000 
 15 O       -7.6920     3.1160    -0.0090 O.3   1 <1>  -0.4300 
 16 C       -8.7740     3.8930     0.2300 C.2   1 <1>   0.6340 
 17 O       -8.7450     5.0690     0.5600 O.2   1 <1>  -0.5700 
 18 C      -10.0270     3.1170     0.0340 C.ar  1 <1>   0.0860 
 19 C      -11.2490     3.7690     0.2280 C.ar  1 <1>  -0.1500 
 20 H      -11.2740     4.8180     0.5150 H     1 <1>   0.1500 
 21 C      -12.4530     3.0770     0.0530 C.ar  1 <1>  -0.1500 
 22 H      -13.3910     3.6040     0.2090 H     1 <1>   0.1500 
 23 C      -12.4550     1.7300    -0.3160 C.ar  1 <1>   0.1000 
 24 N      -13.6450     1.0500    -0.4870 N.pl3 1 <1>  -0.9000 
 25 H      -14.5310     1.5150    -0.3480 H     1 <1>   0.4000 
 26 H      -13.6490     0.0750    -0.7540 H     1 <1>   0.4000 
 27 C      -11.2330     1.0830    -0.5080 C.ar  1 <1>  -0.1500 
 28 H      -11.2080     0.0350    -0.7950 H     1 <1>   0.1500 
 29 C      -10.0240     1.7670    -0.3360 C.ar  1 <1>  -0.1500 
 30 H       -9.0910     1.2290    -0.4950 H     1 <1>   0.1500 
 31 C       -0.5790     3.2320     0.9630 C.2   1 <1>  -0.1500 
 32 H       -0.3390     2.2590     1.3700 H     1 <1>   0.1500 
 33 C        0.1590     4.4320     1.1090 C.2   1 <1>  -0.1500 
 34 H        1.0840     4.5760     1.6490 H     1 <1>   0.1500 
@<TRIPOS>BOND
  1   1   2  1   
  2   2   3  1   
  3   2  33  2   
  4   3   4  1   
  5   4   5  1   
  6   4  31  2   
  7   5   6  1   
  8   5   7  1   
  9   5   8  1   
 10   8   9  1   
 11   8  10  am  
 12  10  11  2   
 13  10  12  1   
 14  12  13  1   
 15  12  14  1   
 16  12  15  1   
 17  15  16  1   
 18  16  17  2   
 19  16  18  1   
 20  18  19  ar  
 21  18  29  ar  
 22  19  20  1   
 23  19  21  ar  
 24  21  22  1   
 25  21  23  ar  
 26  23  24  1   
 27  23  27  ar  
 28  24  25  1   
 29  24  26  1   
 30  27  28  1   
 31  27  29  ar  
 32  29  30  1   
 33  31  32  1   
 34  31  33  1   
 35  33  34  1   
@<TRIPOS>SUBSTRUCTURE
  1 ****  12 GROUP 4 **** **** 0

# MOE 2022.02 (io_trps.svl 2020.11)

@<TRIPOS>MOLECULE
ACT101
20 20 1 0 0 
SMALL
USER_CHARGES


@<TRIPOS>ATOM
  1 H        7.3730     1.2470     1.0270 H     1 <1>   0.0600 
  2 C        7.4630     1.9760     0.2030 C.2   1 <1>   0.4490 
  3 O        8.4660     1.9980    -0.5050 O.2   1 <1>  -0.5700 
  4 C        6.3270     2.9580     0.0810 C.3   1 <1>   0.3410 
  5 H        6.3560     3.6200     0.9530 H     1 <1>   0.0000 
  6 H        6.4380     3.5240    -0.8490 H     1 <1>   0.0000 
  7 O        5.1170     2.1990     0.0660 O.3   1 <1>  -0.4300 
  8 C        4.0010     2.9670     0.0020 C.2   1 <1>   0.6340 
  9 O        3.9840     4.1870    -0.0160 O.2   1 <1>  -0.5700 
 10 C        2.7760     2.1220    -0.0360 C.ar  1 <1>   0.0860 
 11 C        2.8260     0.7210    -0.0440 C.ar  1 <1>  -0.1500 
 12 H        3.7760     0.1930    -0.0270 H     1 <1>   0.1500 
 13 C        1.6440    -0.0220    -0.0780 C.ar  1 <1>  -0.1500 
 14 H        1.6850    -1.1090    -0.0850 H     1 <1>   0.1500 
 15 C        0.4100     0.6260    -0.1040 C.ar  1 <1>  -0.1500 
 16 H       -0.5090     0.0450    -0.1310 H     1 <1>   0.1500 
 17 C        0.3520     2.0190    -0.0980 C.ar  1 <1>  -0.1500 
 18 H       -0.6110     2.5240    -0.1200 H     1 <1>   0.1500 
 19 C        1.5310     2.7660    -0.0640 C.ar  1 <1>  -0.1500 
 20 H        1.4740     3.8530    -0.0600 H     1 <1>   0.1500 
@<TRIPOS>BOND
  1   1   2  1   
  2   2   3  2   
  3   2   4  1   
  4   4   5  1   
  5   4   6  1   
  6   4   7  1   
  7   7   8  1   
  8   8   9  2   
  9   8  10  1   
 10  10  11  ar  
 11  10  19  ar  
 12  11  12  1   
 13  11  13  ar  
 14  13  14  1   
 15  13  15  ar  
 16  15  16  1   
 17  15  17  ar  
 18  17  18  1   
 19  17  19  ar  
 20  19  20  1   
@<TRIPOS>SUBSTRUCTURE
  1 ****   8 GROUP 4 **** **** 0

# MOE 2022.02 (io_trps.svl 2020.11)

@<TRIPOS>MOLECULE
ACT102
19 19 1 0 0 
SMALL
USER_CHARGES


@<TRIPOS>ATOM
  1 H       -5.5620     1.0170     0.0270 H     1 <1>   0.1500 
  2 C       -4.5660     1.4540     0.0500 C.ar  1 <1>  -0.1500 
  3 C       -3.4520     0.6460     0.2630 C.ar  1 <1>  -0.1500 
  4 H       -3.5960    -0.4200     0.4320 H     1 <1>   0.1500 
  5 C       -2.1590     1.1940     0.3010 C.ar  1 <1>   0.1770 
  6 CL      -0.9180     0.1140     0.8390 Cl    1 <1>  -0.1770 
  7 C       -1.9640     2.5710     0.0840 C.ar  1 <1>   0.1170 
  8 N       -0.7100     3.2360     0.0360 N.am  1 <1>  -0.5470 
  9 H       -0.7370     4.2250     0.2640 H     1 <1>   0.3700 
 10 C        0.5020     2.7180    -0.3650 C.2   1 <1>   0.5690 
 11 O        0.6680     1.6930    -1.0150 O.2   1 <1>  -0.5700 
 12 C        1.6590     3.6250    -0.0330 C.3   1 <1>   0.0610 
 13 H        2.5690     3.0280     0.0740 H     1 <1>   0.0000 
 14 H        1.7910     4.3510    -0.8400 H     1 <1>   0.0000 
 15 H        1.4830     4.1560     0.9070 H     1 <1>   0.0000 
 16 C       -3.1130     3.3770    -0.0680 C.ar  1 <1>   0.1770 
 17 CL      -2.9790     5.0970    -0.2600 Cl    1 <1>  -0.1770 
 18 C       -4.3980     2.8260    -0.0980 C.ar  1 <1>  -0.1500 
 19 H       -5.2690     3.4610    -0.2400 H     1 <1>   0.1500 
@<TRIPOS>BOND
  1   1   2  1   
  2   2   3  ar  
  3   2  18  ar  
  4   3   4  1   
  5   3   5  ar  
  6   5   6  1   
  7   5   7  ar  
  8   7   8  1   
  9   7  16  ar  
 10   8   9  1   
 11   8  10  am  
 12  10  11  2   
 13  10  12  1   
 14  12  13  1   
 15  12  14  1   
 16  12  15  1   
 17  16  17  1   
 18  16  18  ar  
 19  18  19  1   
@<TRIPOS>SUBSTRUCTURE
  1 ****   7 GROUP 4 **** **** 0

# MOE 2022.02 (io_trps.svl 2020.11)

@<TRIPOS>MOLECULE
ACT103
24 25 1 0 0 
SMALL
USER_CHARGES


@<TRIPOS>ATOM
  1 H       -0.5560    -4.1280    -0.8020 H     1 <1>   0.4000 
  2 O        0.4060    -4.1730    -0.6640 O.3   1 <1>  -0.6800 
  3 C        0.7780    -2.9480    -0.0380 C.3   1 <1>   0.4180 
  4 H        0.2870    -2.8940     0.9390 H     1 <1>   0.0000 
  5 H        0.3980    -2.1550    -0.6830 H     1 <1>   0.0000 
  6 C        2.2780    -2.9270     0.1250 C.2   1 <1>  -0.2760 
  7 C        3.0450    -1.8330    -0.1020 C.2   1 <1>   0.1230 
  8 C        2.4620    -0.4790    -0.3820 C.2   1 <1>   0.4960 
  9 H        3.1380     0.2250    -0.8940 H     1 <1>   0.0600 
 10 O        1.3250    -0.1440    -0.0680 O.2   1 <1>  -0.5700 
 11 N        4.3990    -1.9100    -0.0280 N.am  1 <1>  -0.3940 
 12 C        5.4510    -1.0680     0.0110 C.2   1 <1>   0.5770 
 13 O        5.5410     0.1290    -0.1250 O.2   1 <1>  -0.5700 
 14 C        6.3990    -2.2730     0.3770 C.3   1 <1>   0.2630 
 15 H        6.7300    -2.2550     1.4200 H     1 <1>   0.0000 
 16 N        7.4820    -2.5260    -0.5970 N.3   1 <1>  -0.9300 
 17 H        8.0790    -3.3150    -0.3450 H     1 <1>   0.3600 
 18 H        8.1110    -1.7270    -0.7020 H     1 <1>   0.3600 
 19 C        5.1520    -3.1470     0.0280 C.3   1 <1>   0.4420 
 20 H        5.1880    -3.6600    -0.9410 H     1 <1>   0.0000 
 21 S        4.4840    -4.1360     1.3860 S.3   1 <1>  -0.4470 
 22 C        2.8380    -4.2580     0.6070 C.3   1 <1>   0.3680 
 23 H        2.1760    -4.6880     1.3670 H     1 <1>   0.0000 
 24 H        2.8980    -4.9640    -0.2290 H     1 <1>   0.0000 
@<TRIPOS>BOND
  1   1   2  1   
  2   2   3  1   
  3   3   4  1   
  4   3   5  1   
  5   3   6  1   
  6   6   7  2   
  7   6  22  1   
  8   7   8  1   
  9   7  11  1   
 10   8   9  1   
 11   8  10  2   
 12  11  12  am  
 13  11  19  1   
 14  12  13  2   
 15  12  14  1   
 16  14  15  1   
 17  14  16  1   
 18  14  19  1   
 19  16  17  1   
 20  16  18  1   
 21  19  20  1   
 22  19  21  1   
 23  21  22  1   
 24  22  23  1   
 25  22  24  1   
@<TRIPOS>SUBSTRUCTURE
  1 ****  11 GROUP 4 **** **** 0

# MOE 2022.02 (io_trps.svl 2020.11)

@<TRIPOS>MOLECULE
ACT104
24 24 1 0 0 
SMALL
USER_CHARGES


@<TRIPOS>ATOM
  1 H        0.2710    -4.5620     0.1400 H     1 <1>   0.1500 
  2 C       -0.1570    -3.5660     0.1920 C.ar  1 <1>  -0.1500 
  3 C       -1.5440    -3.4660     0.3830 C.ar  1 <1>  -0.1500 
  4 H       -2.1280    -4.3790     0.4720 H     1 <1>   0.1500 
  5 C       -2.1800    -2.2240     0.4610 C.ar  1 <1>   0.1000 
  6 N       -3.5440    -2.1410     0.6520 N.pl3 1 <1>  -0.9000 
  7 H       -4.0040    -1.2430     0.7100 H     1 <1>   0.4000 
  8 H       -4.1090    -2.9750     0.7390 H     1 <1>   0.4000 
  9 C       -1.4080    -1.0730     0.3420 C.ar  1 <1>  -0.1500 
 10 H       -1.8670    -0.0890     0.3970 H     1 <1>   0.1500 
 11 C       -0.0260    -1.1840     0.1520 C.ar  1 <1>  -0.0090 
 12 S        0.9370     0.2890     0.0040 S.o2  1 <1>   1.2620 
 13 H        2.2080    -0.0530    -0.1570 H     1 <1>   0.0470 
 14 O        0.4790     0.9360    -1.2130 O.2   1 <1>  -0.6500 
 15 O        0.8060     0.9720     1.2800 O.2   1 <1>  -0.6500 
 16 C        0.6220    -2.4160     0.0760 C.ar  1 <1>   0.0820 
 17 O        1.9760    -2.3880    -0.1070 O.3   1 <1>  -0.3630 
 18 C        2.6550    -3.6440    -0.1690 C.3   1 <1>   0.2800 
 19 H        2.4990    -4.2070     0.7580 H     1 <1>   0.0000 
 20 H        2.3000    -4.2230    -1.0290 H     1 <1>   0.0000 
 21 C        4.1380    -3.3630    -0.3330 C.3   1 <1>   0.0000 
 22 H        4.7060    -4.2940    -0.3970 H     1 <1>   0.0000 
 23 H        4.3210    -2.7720    -1.2370 H     1 <1>   0.0000 
 24 H        4.5130    -2.7760     0.5120 H     1 <1>   0.0000 
@<TRIPOS>BOND
  1   1   2  1   
  2   2   3  ar  
  3   2  16  ar  
  4   3   4  1   
  5   3   5  ar  
  6   5   6  1   
  7   5   9  ar  
  8   6   7  1   
  9   6   8  1   
 10   9  10  1   
 11   9  11  ar  
 12  11  12  1   
 13  11  16  ar  
 14  12  13  1   
 15  12  14  2   
 16  12  15  2   
 17  16  17  1   
 18  17  18  1   
 19  18  19  1   
 20  18  20  1   
 21  18  21  1   
 22  21  22  1   
 23  21  23  1   
 24  21  24  1   
@<TRIPOS>SUBSTRUCTURE
  1 ****  11 GROUP 4 **** **** 0

# MOE 2022.02 (io_trps.svl 2020.11)

@<TRIPOS>MOLECULE
ACT105
33 35 1 0 0 
SMALL
USER_CHARGES


@<TRIPOS>ATOM
  1 H        0.3840     6.5770     0.0600 H     1 <1>   0.0600 
  2 C       -0.5550     6.0120     0.1340 C.2   1 <1>   0.4240 
  3 O       -1.6320     6.6000     0.1650 O.2   1 <1>  -0.5700 
  4 C       -0.4950     4.5390     0.1950 C.ar  1 <1>   0.0860 
  5 C       -1.6880     3.8070     0.2930 C.ar  1 <1>  -0.1500 
  6 H       -2.6460     4.3270     0.3230 H     1 <1>   0.1500 
  7 C       -1.6700     2.4030     0.3530 C.ar  1 <1>  -0.1500 
  8 H       -2.6100     1.8580     0.4290 H     1 <1>   0.1500 
  9 C       -0.4620     1.7060     0.3160 C.ar  1 <1>  -0.1500 
 10 H       -0.4520     0.6200     0.3630 H     1 <1>   0.1500 
 11 C        0.7130     2.4350     0.2200 C.ar  1 <1>  -0.1440 
 12 C        0.6950     3.8300     0.1600 C.ar  1 <1>   0.0860 
 13 C        2.0920     4.2850     0.0630 C.2   1 <1>   0.5440 
 14 O        2.3850     5.4640    -0.0030 O.2   1 <1>  -0.5700 
 15 N        2.9070     3.1470     0.0670 N.am  1 <1>  -0.4770 
 16 C        4.3270     3.1180    -0.0130 C.ar  1 <1>   0.1170 
 17 C        5.0890     4.2860    -0.1170 C.ar  1 <1>  -0.1500 
 18 H        4.6300     5.2690    -0.1430 H     1 <1>   0.1500 
 19 C        6.4870     4.2350    -0.1950 C.ar  1 <1>  -0.1500 
 20 H        7.0500     5.1620    -0.2760 H     1 <1>   0.1500 
 21 C        7.1620     3.0170    -0.1700 C.ar  1 <1>   0.0820 
 22 O        8.5220     3.1100    -0.2530 O.3   1 <1>  -0.3630 
 23 C        9.2530     1.8900    -0.2410 C.3   1 <1>   0.2800 
 24 H        8.9900     1.2640    -1.1000 H     1 <1>   0.0000 
 25 H        9.1060     1.3530     0.7010 H     1 <1>   0.0000 
 26 H       10.3160     2.1360    -0.3220 H     1 <1>   0.0000 
 27 C        6.4220     1.8440    -0.0660 C.ar  1 <1>  -0.1500 
 28 H        6.8970     0.8690    -0.0410 H     1 <1>   0.1500 
 29 C        5.0210     1.8960     0.0110 C.ar  1 <1>  -0.1500 
 30 H        4.4990     0.9480     0.0920 H     1 <1>   0.1500 
 31 C        2.1150     1.9320     0.1650 C.3   1 <1>   0.4440 
 32 H        2.2700     1.3140    -0.7250 H     1 <1>   0.0000 
 33 H        2.3700     1.3950     1.0840 H     1 <1>   0.0000 
@<TRIPOS>BOND
  1   1   2  1   
  2   2   3  2   
  3   2   4  1   
  4   4   5  ar  
  5   4  12  ar  
  6   5   6  1   
  7   5   7  ar  
  8   7   8  1   
  9   7   9  ar  
 10   9  10  1   
 11   9  11  ar  
 12  11  12  ar  
 13  11  31  1   
 14  12  13  1   
 15  13  14  2   
 16  13  15  am  
 17  15  16  1   
 18  15  31  1   
 19  16  17  ar  
 20  16  29  ar  
 21  17  18  1   
 22  17  19  ar  
 23  19  20  1   
 24  19  21  ar  
 25  21  22  1   
 26  21  27  ar  
 27  22  23  1   
 28  23  24  1   
 29  23  25  1   
 30  23  26  1   
 31  27  28  1   
 32  27  29  ar  
 33  29  30  1   
 34  31  32  1   
 35  31  33  1   
@<TRIPOS>SUBSTRUCTURE
  1 ****  15 GROUP 4 **** **** 0

# MOE 2022.02 (io_trps.svl 2020.11)

@<TRIPOS>MOLECULE
ACT106
29 30 1 0 0 
SMALL
USER_CHARGES


@<TRIPOS>ATOM
  1 H        2.5100     7.4730     2.6750 H     1 <1>   0.1500 
  2 C        2.1000     6.6630     2.0880 C.2   1 <1>  -0.1100 
  3 S        1.5940     6.9410     0.4790 S.3   1 <1>  -0.0800 
  4 C        1.1100     5.3080     0.2820 C.2   1 <1>  -0.1400 
  5 C        0.5230     4.8420    -1.0190 C.3   1 <1>   0.2410 
  6 H        0.3900     3.7540    -1.0120 H     1 <1>   0.0000 
  7 H        1.2030     5.0840    -1.8440 H     1 <1>   0.0000 
  8 C       -0.8350     5.4780    -1.2970 C.2   1 <1>   0.5690 
  9 O       -1.0610     6.0060    -2.3830 O.2   1 <1>  -0.5700 
 10 N       -1.7470     5.3210    -0.2630 N.am  1 <1>  -0.5470 
 11 H       -1.4080     4.8570     0.5710 H     1 <1>   0.3700 
 12 C       -3.0910     5.7450    -0.2260 C.ar  1 <1>   0.1170 
 13 C       -3.8100     5.4760     0.9490 C.ar  1 <1>  -0.1500 
 14 H       -3.3390     4.9670     1.7870 H     1 <1>   0.1500 
 15 C       -5.1460     5.8630     1.0730 C.ar  1 <1>  -0.1500 
 16 H       -5.6950     5.6560     1.9890 H     1 <1>   0.1500 
 17 C       -5.7630     6.5190     0.0090 C.ar  1 <1>  -0.0090 
 18 S       -7.4490     7.0450     0.1650 S.o2  1 <1>   1.2620 
 19 H       -7.7170     7.9060    -0.8080 H     1 <1>   0.0470 
 20 O       -8.2440     5.8500    -0.0460 O.2   1 <1>  -0.6500 
 21 O       -7.5210     7.7620     1.4260 O.2   1 <1>  -0.6500 
 22 C       -5.0690     6.8030    -1.1640 C.ar  1 <1>  -0.1500 
 23 H       -5.5420     7.3190    -1.9950 H     1 <1>   0.1500 
 24 C       -3.7310     6.4100    -1.2770 C.ar  1 <1>  -0.1500 
 25 H       -3.2130     6.6410    -2.2030 H     1 <1>   0.1500 
 26 C        1.3570     4.5660     1.4210 C.2   1 <1>  -0.1500 
 27 H        1.1470     3.5060     1.5050 H     1 <1>   0.1500 
 28 C        1.9220     5.3510     2.4660 C.2   1 <1>  -0.1500 
 29 H        2.1930     4.9730     3.4440 H     1 <1>   0.1500 
@<TRIPOS>BOND
  1   1   2  1   
  2   2   3  1   
  3   2  28  2   
  4   3   4  1   
  5   4   5  1   
  6   4  26  2   
  7   5   6  1   
  8   5   7  1   
  9   5   8  1   
 10   8   9  2   
 11   8  10  am  
 12  10  11  1   
 13  10  12  1   
 14  12  13  ar  
 15  12  24  ar  
 16  13  14  1   
 17  13  15  ar  
 18  15  16  1   
 19  15  17  ar  
 20  17  18  1   
 21  17  22  ar  
 22  18  19  1   
 23  18  20  2   
 24  18  21  2   
 25  22  23  1   
 26  22  24  ar  
 27  24  25  1   
 28  26  27  1   
 29  26  28  1   
 30  28  29  1   
@<TRIPOS>SUBSTRUCTURE
  1 ****  12 GROUP 4 **** **** 0

# MOE 2022.02 (io_trps.svl 2020.11)

@<TRIPOS>MOLECULE
ACT107
25 26 1 0 0 
SMALL
USER_CHARGES


@<TRIPOS>ATOM
  1 H        0.3620    -0.0030     1.3510 H     1 <1>   0.1500 
  2 C        0.0340     0.7970     0.7010 C.2   1 <1>  -0.0100 
  3 O       -1.2750     1.1390     0.8070 O.3   1 <1>  -0.2800 
  4 C       -1.5110     2.1500    -0.0900 C.2   1 <1>   0.0550 
  5 C       -2.8180     2.7800    -0.1890 C.2   1 <1>   0.7150 
  6 O       -2.9180     3.9410    -0.5950 O.2   1 <1>  -0.5700 
  7 N       -3.9600     2.0650     0.1790 N.am  1 <1>  -0.6600 
  8 C       -4.0370     0.6150     0.3940 C.3   1 <1>   0.3000 
  9 H       -4.0710     0.4500     1.4770 H     1 <1>   0.0000 
 10 H       -3.1590     0.1070    -0.0100 H     1 <1>   0.0000 
 11 C       -5.2770    -0.0060    -0.2830 C.3   1 <1>   0.2700 
 12 H       -5.3680    -1.0520     0.0290 H     1 <1>   0.0000 
 13 H       -5.1300    -0.0080    -1.3700 H     1 <1>   0.0000 
 14 N       -6.5320     0.6960     0.0280 N.3   1 <1>  -0.9000 
 15 H       -7.2890     0.2880    -0.5190 H     1 <1>   0.3600 
 16 C       -6.3980     2.1200    -0.3210 C.3   1 <1>   0.2700 
 17 H       -7.3230     2.6390    -0.0490 H     1 <1>   0.0000 
 18 H       -6.2750     2.2210    -1.4060 H     1 <1>   0.0000 
 19 C       -5.2150     2.7850     0.4000 C.3   1 <1>   0.3000 
 20 H       -5.1380     3.8320     0.0890 H     1 <1>   0.0000 
 21 H       -5.3920     2.7850     1.4830 H     1 <1>   0.0000 
 22 C       -0.3250     2.4640    -0.7310 C.2   1 <1>  -0.1500 
 23 H       -0.2040     3.2470    -1.4680 H     1 <1>   0.1500 
 24 C        0.6640     1.5830    -0.2330 C.2   1 <1>  -0.1500 
 25 H        1.7070     1.5350    -0.5100 H     1 <1>   0.1500 
@<TRIPOS>BOND
  1   1   2  1   
  2   2   3  1   
  3   2  24  2   
  4   3   4  1   
  5   4   5  1   
  6   4  22  2   
  7   5   6  2   
  8   5   7  am  
  9   7   8  1   
 10   7  19  1   
 11   8   9  1   
 12   8  10  1   
 13   8  11  1   
 14  11  12  1   
 15  11  13  1   
 16  11  14  1   
 17  14  15  1   
 18  14  16  1   
 19  16  17  1   
 20  16  18  1   
 21  16  19  1   
 22  19  20  1   
 23  19  21  1   
 24  22  23  1   
 25  22  24  1   
 26  24  25  1   
@<TRIPOS>SUBSTRUCTURE
  1 ****   7 GROUP 4 **** **** 0

# MOE 2022.02 (io_trps.svl 2020.11)

@<TRIPOS>MOLECULE
ACT108
24 24 1 0 0 
SMALL
USER_CHARGES


@<TRIPOS>ATOM
  1 H       -6.0720     1.2870    -2.9280 H     1 <1>   0.1500 
  2 C       -6.0300     1.3630    -1.8510 C.2   1 <1>  -0.0100 
  3 O       -5.1750     2.2970    -1.3620 O.3   1 <1>  -0.2800 
  4 C       -5.2620     2.2450     0.0000 C.2   1 <1>  -0.0400 
  5 C       -4.4050     3.1850     0.7590 C.3   1 <1>   0.4800 
  6 H       -4.4900     4.2010     0.3610 H     1 <1>   0.0000 
  7 H       -4.6820     3.2090     1.8180 H     1 <1>   0.0000 
  8 N       -3.0330     2.7670     0.6440 N.am  1 <1>  -0.7300 
  9 H       -2.7670     2.0320    -0.0080 H     1 <1>   0.3700 
 10 C       -2.0250     3.3430     1.3760 C.2   1 <1>   0.5690 
 11 O       -2.2120     4.2350     2.1980 O.2   1 <1>  -0.5700 
 12 C       -0.6400     2.7390     1.1160 C.3   1 <1>   0.3310 
 13 H        0.1000     3.5450     1.1740 H     1 <1>   0.0000 
 14 H       -0.4500     2.0070     1.9080 H     1 <1>   0.0000 
 15 N       -0.5930     2.0900    -0.2150 N.3   1 <1>  -0.9000 
 16 H       -0.7290     2.8140    -0.9240 H     1 <1>   0.3600 
 17 C        0.7070     1.4660    -0.4260 C.3   1 <1>   0.2700 
 18 H        0.8920     0.6780     0.3120 H     1 <1>   0.0000 
 19 H        1.5190     2.1990    -0.3780 H     1 <1>   0.0000 
 20 H        0.7310     1.0010    -1.4170 H     1 <1>   0.0000 
 21 C       -6.1700     1.2750     0.3750 C.2   1 <1>  -0.1500 
 22 H       -6.4380     1.0120     1.3890 H     1 <1>   0.1500 
 23 C       -6.6660     0.7070    -0.8230 C.2   1 <1>  -0.1500 
 24 H       -7.3970    -0.0830    -0.9270 H     1 <1>   0.1500 
@<TRIPOS>BOND
  1   1   2  1   
  2   2   3  1   
  3   2  23  2   
  4   3   4  1   
  5   4   5  1   
  6   4  21  2   
  7   5   6  1   
  8   5   7  1   
  9   5   8  1   
 10   8   9  1   
 11   8  10  am  
 12  10  11  2   
 13  10  12  1   
 14  12  13  1   
 15  12  14  1   
 16  12  15  1   
 17  15  16  1   
 18  15  17  1   
 19  17  18  1   
 20  17  19  1   
 21  17  20  1   
 22  21  22  1   
 23  21  23  1   
 24  23  24  1   
@<TRIPOS>SUBSTRUCTURE
  1 ****   8 GROUP 4 **** **** 0

# MOE 2022.02 (io_trps.svl 2020.11)

@<TRIPOS>MOLECULE
ACT109
13 13 1 0 0 
SMALL
USER_CHARGES


@<TRIPOS>ATOM
  1 H       -2.9460     2.5360     0.5780 H     1 <1>   0.1500 
  2 C       -1.9200     2.2640     0.3760 C.2   1 <1>   0.2280 
  3 N       -1.5790     1.4790    -0.6220 N.2   1 <1>  -0.3380 
  4 N       -0.2140     1.2790    -0.6750 N.2   1 <1>  -0.3380 
  5 C        0.4220     1.9210     0.2830 C.2   1 <1>   0.1980 
  6 C        1.9010     1.8990     0.4830 C.3   1 <1>   0.1800 
  7 H        2.1550     2.0520     1.5380 H     1 <1>   0.0000 
  8 H        2.2810     0.9070     0.2100 H     1 <1>   0.0000 
  9 C        2.5950     2.9510    -0.3680 C.3   1 <1>   0.0000 
 10 H        3.6780     2.9030    -0.2210 H     1 <1>   0.0000 
 11 H        2.2610     3.9600    -0.1030 H     1 <1>   0.0000 
 12 H        2.3890     2.7990    -1.4330 H     1 <1>   0.0000 
 13 S       -0.6080     2.8210     1.3270 S.3   1 <1>  -0.0800 
@<TRIPOS>BOND
  1   1   2  1   
  2   2   3  2   
  3   2  13  1   
  4   3   4  1   
  5   4   5  2   
  6   5   6  1   
  7   5  13  1   
  8   6   7  1   
  9   6   8  1   
 10   6   9  1   
 11   9  10  1   
 12   9  11  1   
 13   9  12  1   
@<TRIPOS>SUBSTRUCTURE
  1 ****   5 GROUP 4 **** **** 0

# MOE 2022.02 (io_trps.svl 2020.11)

@<TRIPOS>MOLECULE
ACT110
17 17 1 0 0 
SMALL
USER_CHARGES


@<TRIPOS>ATOM
  1 H       -4.8990     2.2610     0.2100 H     1 <1>   0.1500 
  2 C       -3.8130     2.2680     0.1620 C.ar  1 <1>  -0.1500 
  3 C       -3.1170     1.0710     0.0050 C.ar  1 <1>  -0.1500 
  4 H       -3.6570     0.1310    -0.0680 H     1 <1>   0.1500 
  5 C       -1.7220     1.0790    -0.0570 C.ar  1 <1>  -0.1500 
  6 H       -1.1890     0.1380    -0.1790 H     1 <1>   0.1500 
  7 C       -1.0140     2.2850     0.0360 C.ar  1 <1>   0.0860 
  8 C        0.4760     2.2420    -0.0370 C.2   1 <1>   0.4230 
  9 O        1.0550     1.1630    -0.1530 O.2   1 <1>  -0.5700 
 10 C        1.2480     3.5330     0.0320 C.3   1 <1>   0.0610 
 11 H        2.3170     3.3180    -0.0590 H     1 <1>   0.0000 
 12 H        1.0810     4.0230     0.9950 H     1 <1>   0.0000 
 13 H        0.9650     4.1900    -0.7950 H     1 <1>   0.0000 
 14 C       -1.7210     3.4840     0.1940 C.ar  1 <1>  -0.1500 
 15 H       -1.2120     4.4400     0.2720 H     1 <1>   0.1500 
 16 C       -3.1170     3.4720     0.2560 C.ar  1 <1>  -0.1500 
 17 H       -3.6640     4.4040     0.3790 H     1 <1>   0.1500 
@<TRIPOS>BOND
  1   1   2  1   
  2   2   3  ar  
  3   2  16  ar  
  4   3   4  1   
  5   3   5  ar  
  6   5   6  1   
  7   5   7  ar  
  8   7   8  1   
  9   7  14  ar  
 10   8   9  2   
 11   8  10  1   
 12  10  11  1   
 13  10  12  1   
 14  10  13  1   
 15  14  15  1   
 16  14  16  ar  
 17  16  17  1   
@<TRIPOS>SUBSTRUCTURE
  1 ****   7 GROUP 4 **** **** 0

# MOE 2022.02 (io_trps.svl 2020.11)

@<TRIPOS>MOLECULE
ACT111
17 16 1 0 0 
SMALL
USER_CHARGES


@<TRIPOS>ATOM
  1 H        3.4080     1.0200     2.0520 H     1 <1>   0.0600 
  2 C        3.9200     0.6130     1.1630 C.2   1 <1>   0.4490 
  3 O        5.0290     0.0940     1.2650 O.2   1 <1>  -0.5700 
  4 C        3.1990     0.7620    -0.1600 C.3   1 <1>   0.3610 
  5 H        3.7840     1.4160    -0.8140 H     1 <1>   0.0000 
  6 H        3.1180    -0.2240    -0.6230 H     1 <1>   0.0000 
  7 N        1.8740     1.3540     0.0390 N.am  1 <1>  -0.6600 
  8 C        0.7100     0.6220     0.2390 C.2   1 <1>   0.5690 
  9 O       -0.3880     1.1510     0.4090 O.2   1 <1>  -0.5700 
 10 C        0.8300    -0.8820     0.2470 C.3   1 <1>   0.0610 
 11 H       -0.1300    -1.3210     0.5340 H     1 <1>   0.0000 
 12 H        1.5810    -1.2050     0.9720 H     1 <1>   0.0000 
 13 H        1.0880    -1.2410    -0.7530 H     1 <1>   0.0000 
 14 C        1.8020     2.8090     0.0340 C.3   1 <1>   0.3000 
 15 H        2.1280     3.1720    -0.9450 H     1 <1>   0.0000 
 16 H        2.4690     3.2000     0.8080 H     1 <1>   0.0000 
 17 H        0.7900     3.1760     0.2240 H     1 <1>   0.0000 
@<TRIPOS>BOND
  1   1   2  1   
  2   2   3  2   
  3   2   4  1   
  4   4   5  1   
  5   4   6  1   
  6   4   7  1   
  7   7   8  am  
  8   7  14  1   
  9   8   9  2   
 10   8  10  1   
 11  10  11  1   
 12  10  12  1   
 13  10  13  1   
 14  14  15  1   
 15  14  16  1   
 16  14  17  1   
@<TRIPOS>SUBSTRUCTURE
  1 ****   7 GROUP 4 **** **** 0

# MOE 2022.02 (io_trps.svl 2020.11)

@<TRIPOS>MOLECULE
ACT112
33 33 1 0 0 
SMALL
USER_CHARGES


@<TRIPOS>ATOM
  1 H       10.4720     2.5760     1.9840 H     1 <1>   0.0600 
  2 C       11.2060     2.4870     1.1650 C.2   1 <1>   0.4490 
  3 O       12.3690     2.1700     1.4070 O.2   1 <1>  -0.5700 
  4 C       10.6600     2.6120    -0.2420 C.3   1 <1>   0.3610 
  5 H       10.4150     1.6040    -0.5920 H     1 <1>   0.0000 
  6 H       11.4180     3.0470    -0.9000 H     1 <1>   0.0000 
  7 N        9.4500     3.4390    -0.2580 N.am  1 <1>  -0.6600 
  8 C        8.2340     2.8250     0.0390 C.2   1 <1>   0.5690 
  9 O        8.2010     1.6480     0.4040 O.2   1 <1>  -0.5700 
 10 C        6.9630     3.6750    -0.0950 C.3   1 <1>   0.3410 
 11 H        6.9470     4.0910    -1.1090 H     1 <1>   0.0000 
 12 H        7.0210     4.4690     0.6600 H     1 <1>   0.0000 
 13 O        5.7940     2.8970     0.1210 O.3   1 <1>  -0.3630 
 14 C        4.5880     3.5320     0.0130 C.ar  1 <1>   0.0820 
 15 C        4.3960     4.8860    -0.2630 C.ar  1 <1>  -0.1500 
 16 H        5.2280     5.5650    -0.4180 H     1 <1>   0.1500 
 17 C        3.1030     5.4080    -0.3480 C.ar  1 <1>  -0.1500 
 18 H        2.9600     6.4650    -0.5630 H     1 <1>   0.1500 
 19 C        1.9940     4.5830    -0.1570 C.ar  1 <1>  -0.1500 
 20 H        1.0050     5.0260    -0.2290 H     1 <1>   0.1500 
 21 C        2.1740     3.2240     0.1220 C.ar  1 <1>   0.0860 
 22 C        1.0210     2.2980     0.3360 C.2   1 <1>   0.4230 
 23 O        1.2190     1.1180     0.6160 O.2   1 <1>  -0.5700 
 24 C       -0.3800     2.8360     0.2030 C.3   1 <1>   0.0610 
 25 H       -0.5670     3.5990     0.9640 H     1 <1>   0.0000 
 26 H       -0.5400     3.2370    -0.8010 H     1 <1>   0.0000 
 27 H       -1.0940     2.0210     0.3570 H     1 <1>   0.0000 
 28 C        3.4740     2.7080     0.2060 C.ar  1 <1>  -0.1500 
 29 H        3.6290     1.6520     0.4240 H     1 <1>   0.1500 
 30 C        9.6300     4.8480    -0.5800 C.3   1 <1>   0.3000 
 31 H       10.3850     5.2680     0.0910 H     1 <1>   0.0000 
 32 H        9.9790     4.9250    -1.6140 H     1 <1>   0.0000 
 33 H        8.7120     5.4250    -0.4740 H     1 <1>   0.0000 
@<TRIPOS>BOND
  1   1   2  1   
  2   2   3  2   
  3   2   4  1   
  4   4   5  1   
  5   4   6  1   
  6   4   7  1   
  7   7   8  am  
  8   7  30  1   
  9   8   9  2   
 10   8  10  1   
 11  10  11  1   
 12  10  12  1   
 13  10  13  1   
 14  13  14  1   
 15  14  15  ar  
 16  14  28  ar  
 17  15  16  1   
 18  15  17  ar  
 19  17  18  1   
 20  17  19  ar  
 21  19  20  1   
 22  19  21  ar  
 23  21  22  1   
 24  21  28  ar  
 25  22  23  2   
 26  22  24  1   
 27  24  25  1   
 28  24  26  1   
 29  24  27  1   
 30  28  29  1   
 31  30  31  1   
 32  30  32  1   
 33  30  33  1   
@<TRIPOS>SUBSTRUCTURE
  1 ****  13 GROUP 4 **** **** 0

# MOE 2022.02 (io_trps.svl 2020.11)

@<TRIPOS>MOLECULE
ACT113
28 28 1 0 0 
SMALL
USER_CHARGES


@<TRIPOS>ATOM
  1 H       -5.1790    -1.5250    -1.7390 H     1 <1>   0.1500 
  2 C       -4.5970    -1.8530    -0.8850 C.ar  1 <1>  -0.1500 
  3 C       -3.2380    -1.5130    -0.8450 C.ar  1 <1>  -0.1500 
  4 H       -2.8220    -0.9360    -1.6680 H     1 <1>   0.1500 
  5 C       -2.4290    -1.9060     0.2270 C.ar  1 <1>   0.1170 
  6 N       -1.0780    -1.5290     0.1850 N.am  1 <1>  -0.5470 
  7 H       -0.7540    -0.9930    -0.6180 H     1 <1>   0.3700 
  8 C       -0.0770    -1.7920     1.1040 C.2   1 <1>   0.5690 
  9 O       -0.1860    -2.4150     2.1550 O.2   1 <1>  -0.5700 
 10 C        1.2590    -1.1500     0.6980 C.3   1 <1>   0.3310 
 11 H        2.0730    -1.7910     1.0550 H     1 <1>   0.0000 
 12 H        1.3130    -0.1750     1.1960 H     1 <1>   0.0000 
 13 N        1.3360    -0.9900    -0.7740 N.3   1 <1>  -0.9000 
 14 H        1.3800    -1.9250    -1.1870 H     1 <1>   0.3600 
 15 C        2.5540    -0.2720    -1.1360 C.3   1 <1>   0.2700 
 16 H        2.6090    -0.1770    -2.2250 H     1 <1>   0.0000 
 17 H        2.5560     0.7390    -0.7160 H     1 <1>   0.0000 
 18 H        3.4500    -0.8040    -0.7980 H     1 <1>   0.0000 
 19 C       -3.0000    -2.6430     1.2630 C.ar  1 <1>  -0.1500 
 20 H       -2.4180    -2.9720     2.1180 H     1 <1>   0.1500 
 21 C       -4.3580    -2.9820     1.2220 C.ar  1 <1>  -0.1500 
 22 H       -4.7880    -3.5580     2.0380 H     1 <1>   0.1500 
 23 C       -5.1630    -2.5910     0.1510 C.ar  1 <1>   0.0820 
 24 O       -6.4680    -2.9890     0.2380 O.3   1 <1>  -0.3630 
 25 C       -7.3280    -2.6110    -0.8290 C.3   1 <1>   0.2800 
 26 H       -7.0000    -3.0540    -1.7760 H     1 <1>   0.0000 
 27 H       -7.4050    -1.5220    -0.9070 H     1 <1>   0.0000 
 28 H       -8.3270    -3.0000    -0.6080 H     1 <1>   0.0000 
@<TRIPOS>BOND
  1   1   2  1   
  2   2   3  ar  
  3   2  23  ar  
  4   3   4  1   
  5   3   5  ar  
  6   5   6  1   
  7   5  19  ar  
  8   6   7  1   
  9   6   8  am  
 10   8   9  2   
 11   8  10  1   
 12  10  11  1   
 13  10  12  1   
 14  10  13  1   
 15  13  14  1   
 16  13  15  1   
 17  15  16  1   
 18  15  17  1   
 19  15  18  1   
 20  19  20  1   
 21  19  21  ar  
 22  21  22  1   
 23  21  23  ar  
 24  23  24  1   
 25  24  25  1   
 26  25  26  1   
 27  25  27  1   
 28  25  28  1   
@<TRIPOS>SUBSTRUCTURE
  1 ****   5 GROUP 4 **** **** 0

# MOE 2022.02 (io_trps.svl 2020.11)

@<TRIPOS>MOLECULE
ACT114
29 30 1 0 0 
SMALL
USER_CHARGES


@<TRIPOS>ATOM
  1 H        8.6660     2.9900     1.5620 H     1 <1>   0.0600 
  2 C        9.0420     2.3800     0.7230 C.2   1 <1>   0.4490 
  3 O       10.2510     2.2410     0.5510 O.2   1 <1>  -0.5700 
  4 C        8.0020     1.6200    -0.0710 C.3   1 <1>   0.3610 
  5 H        8.3120     1.5390    -1.1170 H     1 <1>   0.0000 
  6 H        7.9240     0.6170     0.3630 H     1 <1>   0.0000 
  7 N        6.7010     2.2830     0.0130 N.am  1 <1>  -0.6600 
  8 C        5.8850     1.9820     1.0990 C.2   1 <1>   0.5440 
  9 O        6.2680     1.3200     2.0590 O.2   1 <1>  -0.5700 
 10 C        4.5060     2.5060     1.1260 C.ar  1 <1>   0.0860 
 11 C        4.2370     3.5130     2.0490 C.ar  1 <1>  -0.1500 
 12 H        4.9980     3.8840     2.7250 H     1 <1>   0.1500 
 13 C        2.9600     4.0220     2.0690 C.ar  1 <1>   0.1600 
 14 H        2.6790     4.8120     2.7600 H     1 <1>   0.1500 
 15 N        1.9730     3.5970     1.2520 N.ar  1 <1>  -0.6200 
 16 C        2.2320     2.6000     0.3870 C.ar  1 <1>   0.3100 
 17 C        1.2060     2.1490    -0.4330 C.ar  1 <1>  -0.1500 
 18 H        0.2270     2.6170    -0.3520 H     1 <1>   0.1500 
 19 C        1.3920     1.1100    -1.3480 C.ar  1 <1>  -0.1500 
 20 H        0.5630     0.7800    -1.9700 H     1 <1>   0.1500 
 21 C        2.6320     0.4970    -1.4510 C.ar  1 <1>  -0.1500 
 22 H        2.7830    -0.3200    -2.1520 H     1 <1>   0.1500 
 23 C        3.6800     0.9320    -0.6430 C.ar  1 <1>  -0.1500 
 24 H        4.6420     0.4280    -0.7290 H     1 <1>   0.1500 
 25 C        3.4990     1.9940     0.2780 C.ar  1 <1>   0.0000 
 26 C        6.3710     3.2230    -1.0530 C.3   1 <1>   0.3000 
 27 H        6.2100     2.6580    -1.9750 H     1 <1>   0.0000 
 28 H        7.2120     3.9090    -1.1900 H     1 <1>   0.0000 
 29 H        5.4800     3.8120    -0.8290 H     1 <1>   0.0000 
@<TRIPOS>BOND
  1   1   2  1   
  2   2   3  2   
  3   2   4  1   
  4   4   5  1   
  5   4   6  1   
  6   4   7  1   
  7   7   8  am  
  8   7  26  1   
  9   8   9  2   
 10   8  10  1   
 11  10  11  ar  
 12  10  25  ar  
 13  11  12  1   
 14  11  13  ar  
 15  13  14  1   
 16  13  15  ar  
 17  15  16  ar  
 18  16  17  ar  
 19  16  25  ar  
 20  17  18  1   
 21  17  19  ar  
 22  19  20  1   
 23  19  21  ar  
 24  21  22  1   
 25  21  23  ar  
 26  23  24  1   
 27  23  25  ar  
 28  26  27  1   
 29  26  28  1   
 30  26  29  1   
@<TRIPOS>SUBSTRUCTURE
  1 ****  10 GROUP 4 **** **** 0

# MOE 2022.02 (io_trps.svl 2020.11)

@<TRIPOS>MOLECULE
ACT115
21 20 1 0 0 
SMALL
USER_CHARGES


@<TRIPOS>ATOM
  1 H       -0.8380     2.0350    -0.4790 H     1 <1>   0.4000 
  2 N        0.0570     2.5210    -0.4140 N.2   1 <1>  -0.8500 
  3 C        0.9980     1.6550    -0.2830 C.2   1 <1>   0.5500 
  4 N        0.7730     0.3360    -0.2460 N.pl3 1 <1>  -0.8500 
  5 H       -0.1600    -0.0350    -0.3300 H     1 <1>   0.4000 
  6 H        1.5220    -0.3260    -0.1310 H     1 <1>   0.4000 
  7 N        2.2680     2.0830    -0.1760 N.pl3 1 <1>  -0.8190 
  8 H        2.3350     3.0950    -0.1960 H     1 <1>   0.4000 
  9 C        3.4800     1.3190    -0.0400 C.3   1 <1>   0.3690 
 10 H        3.5700     0.6170    -0.8760 H     1 <1>   0.0000 
 11 H        3.4490     0.7380     0.8890 H     1 <1>   0.0000 
 12 C        4.6870     2.2530    -0.0250 C.3   1 <1>   0.0000 
 13 H        4.6990     2.8640    -0.9360 H     1 <1>   0.0000 
 14 H        4.5990     2.9550     0.8140 H     1 <1>   0.0000 
 15 C        5.9850     1.4680     0.0830 C.3   1 <1>   0.1050 
 16 H        6.0210     0.8760     1.0030 H     1 <1>   0.0000 
 17 H        6.1070     0.7960    -0.7720 H     1 <1>   0.0000 
 18 S        7.3980     2.5500     0.0970 S.o2  1 <1>   1.1480 
 19 H        7.3060     3.3660    -0.9440 H     1 <1>   0.0470 
 20 O        8.5590     1.7020    -0.1020 O.2   1 <1>  -0.6500 
 21 O        7.2930     3.3500     1.3040 O.2   1 <1>  -0.6500 
@<TRIPOS>BOND
  1   1   2  1   
  2   2   3  2   
  3   3   4  1   
  4   3   7  1   
  5   4   5  1   
  6   4   6  1   
  7   7   8  1   
  8   7   9  1   
  9   9  10  1   
 10   9  11  1   
 11   9  12  1   
 12  12  13  1   
 13  12  14  1   
 14  12  15  1   
 15  15  16  1   
 16  15  17  1   
 17  15  18  1   
 18  18  19  1   
 19  18  20  2   
 20  18  21  2   
@<TRIPOS>SUBSTRUCTURE
  1 ****  12 GROUP 4 **** **** 0

# MOE 2022.02 (io_trps.svl 2020.11)

@<TRIPOS>MOLECULE
ACT116
28 28 1 0 0 
SMALL
USER_CHARGES


@<TRIPOS>ATOM
  1 H        2.7270     2.4690     0.8580 H     1 <1>   0.1500 
  2 C        1.6600     2.5670     0.6770 C.ar  1 <1>  -0.1500 
  3 C        1.1210     2.1710    -0.5450 C.ar  1 <1>  -0.1500 
  4 H        1.7680     1.7620    -1.3160 H     1 <1>   0.1500 
  5 C       -0.2500     2.2980    -0.7800 C.ar  1 <1>  -0.1500 
  6 H       -0.6520     1.9840    -1.7400 H     1 <1>   0.1500 
  7 C       -1.0960     2.8270     0.2070 C.ar  1 <1>  -0.1440 
  8 C       -2.6030     2.9430    -0.0490 C.3   1 <1>   0.4140 
  9 H       -2.7840     2.7210    -1.1120 H     1 <1>   0.0000 
 10 N       -3.0900     4.3270     0.2280 N.3   1 <1>  -0.8100 
 11 C       -4.5510     4.4250     0.2070 C.3   1 <1>   0.2700 
 12 H       -4.8680     5.4660     0.3440 H     1 <1>   0.0000 
 13 H       -4.9980     3.8790     1.0420 H     1 <1>   0.0000 
 14 H       -4.9790     4.0660    -0.7350 H     1 <1>   0.0000 
 15 C       -2.5350     5.2820    -0.7410 C.3   1 <1>   0.2700 
 16 H       -1.4420     5.3190    -0.6930 H     1 <1>   0.0000 
 17 H       -2.8290     5.0430    -1.7690 H     1 <1>   0.0000 
 18 H       -2.8770     6.2980    -0.5150 H     1 <1>   0.0000 
 19 C       -3.2960     1.8050     0.7840 C.3   1 <1>   0.2700 
 20 H       -2.6470     0.9200     0.8210 H     1 <1>   0.0000 
 21 H       -3.4340     2.1290     1.8230 H     1 <1>   0.0000 
 22 N       -4.5920     1.3530     0.2450 N.3   1 <1>  -0.9900 
 23 H       -4.4480     0.9550    -0.6820 H     1 <1>   0.3600 
 24 H       -4.9410     0.5950     0.8300 H     1 <1>   0.3600 
 25 C       -0.5380     3.2220     1.4350 C.ar  1 <1>  -0.1500 
 26 H       -1.1750     3.6440     2.2090 H     1 <1>   0.1500 
 27 C        0.8320     3.0930     1.6670 C.ar  1 <1>  -0.1500 
 28 H        1.2520     3.4080     2.6180 H     1 <1>   0.1500 
@<TRIPOS>BOND
  1   1   2  1   
  2   2   3  ar  
  3   2  27  ar  
  4   3   4  1   
  5   3   5  ar  
  6   5   6  1   
  7   5   7  ar  
  8   7   8  1   
  9   7  25  ar  
 10   8   9  1   
 11   8  10  1   
 12   8  19  1   
 13  10  11  1   
 14  10  15  1   
 15  11  12  1   
 16  11  13  1   
 17  11  14  1   
 18  15  16  1   
 19  15  17  1   
 20  15  18  1   
 21  19  20  1   
 22  19  21  1   
 23  19  22  1   
 24  22  23  1   
 25  22  24  1   
 26  25  26  1   
 27  25  27  ar  
 28  27  28  1   
@<TRIPOS>SUBSTRUCTURE
  1 ****   7 GROUP 4 **** **** 0

# MOE 2022.02 (io_trps.svl 2020.11)

@<TRIPOS>MOLECULE
ACT117
33 34 1 0 0 
SMALL
USER_CHARGES


@<TRIPOS>ATOM
  1 H        0.2730    -3.3460     0.1650 H     1 <1>   0.1500 
  2 C       -0.2180    -2.3870     0.0350 C.ar  1 <1>  -0.1500 
  3 C       -1.5720    -2.3850    -0.3140 C.ar  1 <1>  -0.1500 
  4 H       -2.0950    -3.3290    -0.4480 H     1 <1>   0.1500 
  5 C       -2.2400    -1.1700    -0.4860 C.ar  1 <1>  -0.0090 
  6 S       -3.9590    -1.1640    -0.9450 S.o2  1 <1>   1.4470 
  7 O       -4.2460    -2.4400    -1.5670 O.2   1 <1>  -0.6500 
  8 O       -4.2180     0.0830    -1.6330 O.2   1 <1>  -0.6500 
  9 N       -4.6790    -1.1170     0.5880 N.am  1 <1>  -0.8490 
 10 C       -5.3720    -2.3480     1.0560 C.3   1 <1>   0.3560 
 11 H       -4.8110    -3.2450     0.7750 H     1 <1>   0.0000 
 12 H       -5.3950    -2.3340     2.1530 H     1 <1>   0.0000 
 13 C       -6.8090    -2.3960     0.4980 C.3   1 <1>   0.2700 
 14 H       -6.7910    -2.5250    -0.5900 H     1 <1>   0.0000 
 15 H       -7.3240    -3.2680     0.9160 H     1 <1>   0.0000 
 16 N       -7.5920    -1.1880     0.8280 N.3   1 <1>  -0.9000 
 17 H       -8.4920    -1.2360     0.3500 H     1 <1>   0.3600 
 18 C       -6.8770     0.0250     0.3860 C.3   1 <1>   0.2700 
 19 H       -7.4410     0.9030     0.7180 H     1 <1>   0.0000 
 20 H       -6.8560     0.0510    -0.7100 H     1 <1>   0.0000 
 21 C       -5.4440     0.1070     0.9480 C.3   1 <1>   0.3560 
 22 H       -5.4740     0.1850     2.0420 H     1 <1>   0.0000 
 23 H       -4.9340     1.0080     0.5950 H     1 <1>   0.0000 
 24 C       -1.5630     0.0410    -0.3340 C.ar  1 <1>  -0.1500 
 25 H       -2.0740     0.9890    -0.4820 H     1 <1>   0.1500 
 26 C       -0.2120     0.0280     0.0160 C.ar  1 <1>  -0.1500 
 27 H        0.3210     0.9680     0.1400 H     1 <1>   0.1500 
 28 C        0.4660    -1.1810     0.2050 C.ar  1 <1>   0.0820 
 29 O        1.7830    -1.0450     0.5470 O.3   1 <1>  -0.3630 
 30 C        2.5210    -2.2420     0.7610 C.3   1 <1>   0.2800 
 31 H        2.5700    -2.8440    -0.1530 H     1 <1>   0.0000 
 32 H        2.1040    -2.8200     1.5930 H     1 <1>   0.0000 
 33 H        3.5440    -1.9610     1.0300 H     1 <1>   0.0000 
@<TRIPOS>BOND
  1   1   2  1   
  2   2   3  ar  
  3   2  28  ar  
  4   3   4  1   
  5   3   5  ar  
  6   5   6  1   
  7   5  24  ar  
  8   6   7  2   
  9   6   8  2   
 10   6   9  am  
 11   9  10  1   
 12   9  21  1   
 13  10  11  1   
 14  10  12  1   
 15  10  13  1   
 16  13  14  1   
 17  13  15  1   
 18  13  16  1   
 19  16  17  1   
 20  16  18  1   
 21  18  19  1   
 22  18  20  1   
 23  18  21  1   
 24  21  22  1   
 25  21  23  1   
 26  24  25  1   
 27  24  26  ar  
 28  26  27  1   
 29  26  28  ar  
 30  28  29  1   
 31  29  30  1   
 32  30  31  1   
 33  30  32  1   
 34  30  33  1   
@<TRIPOS>SUBSTRUCTURE
  1 ****   5 GROUP 4 **** **** 0

# MOE 2022.02 (io_trps.svl 2020.11)

@<TRIPOS>MOLECULE
ACT118
20 21 1 0 0 
SMALL
USER_CHARGES


@<TRIPOS>ATOM
  1 H        6.2380    -1.9500    -0.7870 H     1 <1>   0.0600 
  2 C        6.2870    -0.8560    -0.6430 C.2   1 <1>   0.4490 
  3 O        7.3160    -0.2430    -0.9160 O.2   1 <1>  -0.5700 
  4 C        5.0580    -0.2350    -0.0240 C.3   1 <1>   0.3410 
  5 H        4.9910    -0.5790     1.0150 H     1 <1>   0.0000 
  6 O        3.9400    -0.7620    -0.7490 O.3   1 <1>  -0.3630 
  7 C        2.7940    -0.0580    -0.4760 C.ar  1 <1>   0.0820 
  8 C        1.5910    -0.6480    -0.8580 C.ar  1 <1>  -0.1500 
  9 H        1.5900    -1.6150    -1.3540 H     1 <1>   0.1500 
 10 C        0.3840     0.0000    -0.5900 C.ar  1 <1>  -0.1500 
 11 H       -0.5570    -0.4610    -0.8830 H     1 <1>   0.1500 
 12 C        0.3820     1.2370     0.0560 C.ar  1 <1>  -0.1500 
 13 H       -0.5590     1.7400     0.2670 H     1 <1>   0.1500 
 14 C        1.5880     1.8350     0.4260 C.ar  1 <1>  -0.1500 
 15 H        1.5880     2.8020     0.9210 H     1 <1>   0.1500 
 16 C        2.7940     1.1940     0.1470 C.ar  1 <1>   0.0820 
 17 O        3.9400     1.8480     0.5200 O.3   1 <1>  -0.3630 
 18 C        5.0950     1.2820    -0.1140 C.3   1 <1>   0.2800 
 19 H        5.1260     1.6310    -1.1550 H     1 <1>   0.0000 
 20 H        5.9780     1.6830     0.3960 H     1 <1>   0.0000 
@<TRIPOS>BOND
  1   1   2  1   
  2   2   3  2   
  3   2   4  1   
  4   4   5  1   
  5   4   6  1   
  6   4  18  1   
  7   6   7  1   
  8   7   8  ar  
  9   7  16  ar  
 10   8   9  1   
 11   8  10  ar  
 12  10  11  1   
 13  10  12  ar  
 14  12  13  1   
 15  12  14  ar  
 16  14  15  1   
 17  14  16  ar  
 18  16  17  1   
 19  17  18  1   
 20  18  19  1   
 21  18  20  1   
@<TRIPOS>SUBSTRUCTURE
  1 ****   7 GROUP 4 **** **** 0

# MOE 2022.02 (io_trps.svl 2020.11)

@<TRIPOS>MOLECULE
ACT119
26 26 1 0 0 
SMALL
USER_CHARGES


@<TRIPOS>ATOM
  1 H        8.8120     0.8000    -0.4750 H     1 <1>   0.4000 
  2 O        8.4130     0.1680    -1.1050 O.3   1 <1>  -0.6800 
  3 C        7.1170    -0.1320    -0.5940 C.3   1 <1>   0.3410 
  4 H        6.5190    -0.5220    -1.4210 H     1 <1>   0.0000 
  5 H        7.2310    -0.8860     0.1900 H     1 <1>   0.0000 
  6 C        6.4720     1.1210    -0.0070 C.2   1 <1>   0.4950 
  7 O        7.1880     2.0600     0.3650 O.2   1 <1>  -0.5700 
  8 C        4.9750     1.2020     0.0550 C.2   1 <1>   0.0290 
  9 C        4.3510     2.3920    -0.1000 C.2   1 <1>   0.2090 
 10 N        5.0650     3.5550    -0.2590 N.pl3 1 <1>  -0.9000 
 11 H        6.0830     3.5290    -0.1570 H     1 <1>   0.4000 
 12 H        4.6260     4.4400    -0.4580 H     1 <1>   0.4000 
 13 N        2.9580     2.4330    -0.1060 N.am  1 <1>  -0.4690 
 14 C        2.2740     3.7160    -0.2580 C.3   1 <1>   0.3000 
 15 H        2.5320     4.1460    -1.2310 H     1 <1>   0.0000 
 16 H        2.5850     4.3890     0.5470 H     1 <1>   0.0000 
 17 H        1.1860     3.6230    -0.2110 H     1 <1>   0.0000 
 18 C        2.1500     1.3060     0.0260 C.2   1 <1>   0.6900 
 19 O        0.9190     1.3630     0.0010 O.2   1 <1>  -0.5700 
 20 N        2.8080     0.1000     0.1920 N.am  1 <1>  -0.4200 
 21 C        1.9810    -1.0870     0.3320 C.3   1 <1>   0.3000 
 22 H        1.3760    -0.9890     1.2400 H     1 <1>   0.0000 
 23 H        1.3040    -1.1560    -0.5260 H     1 <1>   0.0000 
 24 H        2.5710    -2.0050     0.3940 H     1 <1>   0.0000 
 25 C        4.1750    -0.0270     0.2450 C.2   1 <1>   0.6160 
 26 O        4.7460    -1.0960     0.4530 O.2   1 <1>  -0.5700 
@<TRIPOS>BOND
  1   1   2  1   
  2   2   3  1   
  3   3   4  1   
  4   3   5  1   
  5   3   6  1   
  6   6   7  2   
  7   6   8  1   
  8   8   9  2   
  9   8  25  1   
 10   9  10  1   
 11   9  13  1   
 12  10  11  1   
 13  10  12  1   
 14  13  14  1   
 15  13  18  am  
 16  14  15  1   
 17  14  16  1   
 18  14  17  1   
 19  18  19  2   
 20  18  20  am  
 21  20  21  1   
 22  20  25  am  
 23  21  22  1   
 24  21  23  1   
 25  21  24  1   
 26  25  26  2   
@<TRIPOS>SUBSTRUCTURE
  1 ****   8 GROUP 4 **** **** 0

# MOE 2022.02 (io_trps.svl 2020.11)

@<TRIPOS>MOLECULE
ACT120
30 32 1 0 0 
SMALL
USER_CHARGES


@<TRIPOS>ATOM
  1 H       -1.5160    -1.2490     0.6220 H     1 <1>   0.0600 
  2 C       -2.5940    -1.4350     0.5130 C.2   1 <1>   0.4240 
  3 O       -3.4010    -0.5320     0.7060 O.2   1 <1>  -0.5700 
  4 C       -3.0230    -2.8040     0.1460 C.ar  1 <1>   0.0860 
  5 C       -4.3820    -3.1200     0.3090 C.ar  1 <1>  -0.1500 
  6 H       -5.0840    -2.3630     0.6560 H     1 <1>   0.1500 
  7 C       -4.8460    -4.4090     0.0460 C.ar  1 <1>  -0.1500 
  8 H       -5.8980    -4.6460     0.1800 H     1 <1>   0.1500 
  9 C       -3.9560    -5.3890    -0.3780 C.ar  1 <1>  -0.1500 
 10 H       -4.3100    -6.3970    -0.5800 H     1 <1>   0.1500 
 11 C       -2.6050    -5.0760    -0.5510 C.ar  1 <1>  -0.1500 
 12 H       -1.9290    -5.8570    -0.8970 H     1 <1>   0.1500 
 13 C       -2.1160    -3.7800    -0.3030 C.ar  1 <1>   0.0530 
 14 C       -0.7050    -3.5180    -0.5590 C.2   1 <1>   0.0870 
 15 O        0.1620    -4.4410    -0.0630 O.3   1 <1>  -0.2800 
 16 C        1.4560    -4.0790    -0.3840 C.2   1 <1>   0.0950 
 17 C        2.5440    -4.9030     0.0200 C.2   1 <1>  -0.1050 
 18 H        2.2480    -5.8920     0.3710 H     1 <1>   0.1500 
 19 C        3.8470    -4.5960     0.0380 C.2   1 <1>   0.1150 
 20 S        4.6670    -3.1410    -0.3810 S.3   1 <1>  -0.2420 
 21 C        6.2370    -3.7990     0.0290 C.2   1 <1>   0.7710 
 22 O        7.2870    -3.1880    -0.0700 O.2   1 <1>  -0.5700 
 23 N        6.0960    -5.0750     0.4650 N.am  1 <1>  -0.4900 
 24 H        6.8980    -5.6150     0.7480 H     1 <1>   0.3700 
 25 C        4.8410    -5.6030     0.5080 C.2   1 <1>   0.6160 
 26 O        4.5790    -6.7360     0.8790 O.2   1 <1>  -0.5700 
 27 C        1.3670    -2.9010    -1.1180 C.2   1 <1>  -0.1500 
 28 H        2.1880    -2.3530    -1.5550 H     1 <1>   0.1500 
 29 C       -0.0020    -2.5460    -1.2290 C.2   1 <1>  -0.1500 
 30 H       -0.4150    -1.6950    -1.7530 H     1 <1>   0.1500 
@<TRIPOS>BOND
  1   1   2  1   
  2   2   3  2   
  3   2   4  1   
  4   4   5  ar  
  5   4  13  ar  
  6   5   6  1   
  7   5   7  ar  
  8   7   8  1   
  9   7   9  ar  
 10   9  10  1   
 11   9  11  ar  
 12  11  12  1   
 13  11  13  ar  
 14  13  14  1   
 15  14  15  1   
 16  14  29  2   
 17  15  16  1   
 18  16  17  1   
 19  16  27  2   
 20  17  18  1   
 21  17  19  2   
 22  19  20  1   
 23  19  25  1   
 24  20  21  1   
 25  21  22  2   
 26  21  23  am  
 27  23  24  1   
 28  23  25  am  
 29  25  26  2   
 30  27  28  1   
 31  27  29  1   
 32  29  30  1   
@<TRIPOS>SUBSTRUCTURE
  1 ****  15 GROUP 4 **** **** 0

# MOE 2022.02 (io_trps.svl 2020.11)

@<TRIPOS>MOLECULE
ACT121
23 23 1 0 0 
SMALL
USER_CHARGES


@<TRIPOS>ATOM
  1 H       -4.5140     2.9930    -1.7910 H     1 <1>   0.3600 
  2 N       -4.2850     3.1660    -0.8120 N.3   1 <1>  -0.9000 
  3 C       -3.2820     4.2310    -0.7390 C.3   1 <1>   0.2700 
  4 H       -2.6440     4.1900    -1.6300 H     1 <1>   0.0000 
  5 H       -3.7980     5.1960    -0.7630 H     1 <1>   0.0000 
  6 C       -2.4200     4.1390     0.5160 C.3   1 <1>   0.0000 
  7 H       -3.0680     4.2010     1.4000 H     1 <1>   0.0000 
  8 H       -1.7460     5.0010     0.5710 H     1 <1>   0.0000 
  9 C       -1.6420     2.8150     0.5520 C.3   1 <1>   0.0610 
 10 H       -1.4800     2.5660     1.6100 H     1 <1>   0.0000 
 11 C       -0.2730     2.9690    -0.0850 C.2   1 <1>   0.6590 
 12 O        0.0350     3.8330    -0.8950 O.2   1 <1>  -0.5700 
 13 O        0.5590     1.9870     0.3640 O.3   1 <1>  -0.4300 
 14 C        1.8740     2.0410    -0.1890 C.3   1 <1>   0.2800 
 15 H        2.4570     1.2220     0.2420 H     1 <1>   0.0000 
 16 H        2.3610     2.9870     0.0690 H     1 <1>   0.0000 
 17 H        1.8380     1.9060    -1.2750 H     1 <1>   0.0000 
 18 C       -2.3950     1.6790    -0.1520 C.3   1 <1>   0.0000 
 19 H       -2.1740     0.7290     0.3500 H     1 <1>   0.0000 
 20 H       -2.0480     1.5610    -1.1870 H     1 <1>   0.0000 
 21 C       -3.8990     1.9210    -0.1530 C.3   1 <1>   0.2700 
 22 H       -4.2660     1.9430     0.8810 H     1 <1>   0.0000 
 23 H       -4.4100     1.0840    -0.6410 H     1 <1>   0.0000 
@<TRIPOS>BOND
  1   1   2  1   
  2   2   3  1   
  3   2  21  1   
  4   3   4  1   
  5   3   5  1   
  6   3   6  1   
  7   6   7  1   
  8   6   8  1   
  9   6   9  1   
 10   9  10  1   
 11   9  11  1   
 12   9  18  1   
 13  11  12  2   
 14  11  13  1   
 15  13  14  1   
 16  14  15  1   
 17  14  16  1   
 18  14  17  1   
 19  18  19  1   
 20  18  20  1   
 21  18  21  1   
 22  21  22  1   
 23  21  23  1   
@<TRIPOS>SUBSTRUCTURE
  1 ****   9 GROUP 4 **** **** 0

# MOE 2022.02 (io_trps.svl 2020.11)

@<TRIPOS>MOLECULE
ACT122
14 14 1 0 0 
SMALL
USER_CHARGES


@<TRIPOS>ATOM
  1 H        3.2850    -0.9010    -0.2520 H     1 <1>   0.0600 
  2 C        2.7520     0.0560    -0.1030 C.2   1 <1>   0.4760 
  3 N        3.3630     1.1950    -0.0160 N.2   1 <1>  -0.5030 
  4 N        4.7110     1.0960    -0.1140 N.pl3 1 <1>  -0.5690 
  5 H        5.1000     0.5820     0.6560 H     1 <1>   0.3110 
  6 H        5.1160     2.0150    -0.1310 H     1 <1>   0.3110 
  7 C        1.3140     0.0120    -0.0060 C.2   1 <1>  -0.0860 
  8 C        0.4720     1.0900     0.1740 C.2   1 <1>  -0.0100 
  9 H        0.6390     2.1540     0.2800 H     1 <1>   0.1500 
 10 O       -0.8240     0.6890     0.2230 O.3   1 <1>  -0.2800 
 11 C       -0.8240    -0.6590     0.0710 C.2   1 <1>  -0.0100 
 12 H       -1.7970    -1.1310     0.0870 H     1 <1>   0.1500 
 13 C        0.4620    -1.1260    -0.0720 C.2   1 <1>  -0.1500 
 14 H        0.7480    -2.1600    -0.2100 H     1 <1>   0.1500 
@<TRIPOS>BOND
  1   1   2  1   
  2   2   3  2   
  3   2   7  1   
  4   3   4  1   
  5   4   5  1   
  6   4   6  1   
  7   7   8  2   
  8   7  13  1   
  9   8   9  1   
 10   8  10  1   
 11  10  11  1   
 12  11  12  1   
 13  11  13  2   
 14  13  14  1   
@<TRIPOS>SUBSTRUCTURE
  1 ****   7 GROUP 4 **** **** 0

# MOE 2022.02 (io_trps.svl 2020.11)

@<TRIPOS>MOLECULE
ACT123
40 42 1 0 0 
SMALL
USER_CHARGES


@<TRIPOS>ATOM
  1 H       -1.9030    -0.2670    -2.2670 H     1 <1>   0.1500 
  2 C       -1.4250    -0.9820    -1.6040 C.ar  1 <1>   0.1600 
  3 N       -1.7860    -0.8910    -0.3060 N.ar  1 <1>  -0.6200 
  4 C       -1.2570    -1.7590     0.5770 C.ar  1 <1>   0.3100 
  5 C       -1.6440    -1.6740     1.9080 C.ar  1 <1>  -0.1500 
  6 H       -2.3600    -0.9090     2.1960 H     1 <1>   0.1500 
  7 C       -1.1420    -2.5430     2.8810 C.ar  1 <1>  -0.1500 
  8 H       -1.4690    -2.4470     3.9130 H     1 <1>   0.1500 
  9 C       -0.2330    -3.5280     2.5230 C.ar  1 <1>  -0.1500 
 10 H        0.1590    -4.2120     3.2710 H     1 <1>   0.1500 
 11 C        0.1720    -3.6360     1.1950 C.ar  1 <1>  -0.1500 
 12 H        0.8790    -4.4200     0.9290 H     1 <1>   0.1500 
 13 C       -0.3270    -2.7500     0.2080 C.ar  1 <1>   0.0000 
 14 C        0.0420    -2.7770    -1.1540 C.ar  1 <1>   0.0860 
 15 C        1.0230    -3.7480    -1.6650 C.2   1 <1>   0.5440 
 16 O        0.5830    -4.7550    -2.2130 O.2   1 <1>  -0.5700 
 17 N        2.3770    -3.4670    -1.5120 N.am  1 <1>  -0.6600 
 18 C        2.9360    -2.2500    -0.9200 C.3   1 <1>   0.3000 
 19 H        2.1580    -1.5620    -0.5840 H     1 <1>   0.0000 
 20 H        3.4990    -1.7360    -1.7090 H     1 <1>   0.0000 
 21 C        3.8560    -2.5990     0.2440 C.3   1 <1>   0.0000 
 22 H        3.2580    -3.0150     1.0650 H     1 <1>   0.0000 
 23 H        4.3290    -1.6880     0.6290 H     1 <1>   0.0000 
 24 C        4.9310    -3.6120    -0.1820 C.3   1 <1>   0.0610 
 25 H        5.5980    -3.1140    -0.8990 H     1 <1>   0.0000 
 26 C        5.7720    -4.0340     1.0060 C.2   1 <1>   0.6590 
 27 O        5.5010    -3.8070     2.1770 O.2   1 <1>  -0.5700 
 28 O        6.8830    -4.6970     0.5760 O.3   1 <1>  -0.4300 
 29 C        7.7450    -5.1320     1.6290 C.3   1 <1>   0.2800 
 30 H        8.5960    -5.6510     1.1790 H     1 <1>   0.0000 
 31 H        7.2210    -5.8330     2.2870 H     1 <1>   0.0000 
 32 H        8.1220    -4.2740     2.1950 H     1 <1>   0.0000 
 33 C        4.2900    -4.8430    -0.8350 C.3   1 <1>   0.0000 
 34 H        3.7240    -5.4060    -0.0810 H     1 <1>   0.0000 
 35 H        5.0620    -5.5210    -1.2170 H     1 <1>   0.0000 
 36 C        3.3590    -4.4420    -1.9740 C.3   1 <1>   0.3000 
 37 H        3.9270    -3.9760    -2.7890 H     1 <1>   0.0000 
 38 H        2.8730    -5.3330    -2.3830 H     1 <1>   0.0000 
 39 C       -0.5200    -1.9020    -2.0800 C.ar  1 <1>  -0.1500 
 40 H       -0.2580    -1.9430    -3.1310 H     1 <1>   0.1500 
@<TRIPOS>BOND
  1   1   2  1   
  2   2   3  ar  
  3   2  39  ar  
  4   3   4  ar  
  5   4   5  ar  
  6   4  13  ar  
  7   5   6  1   
  8   5   7  ar  
  9   7   8  1   
 10   7   9  ar  
 11   9  10  1   
 12   9  11  ar  
 13  11  12  1   
 14  11  13  ar  
 15  13  14  ar  
 16  14  15  1   
 17  14  39  ar  
 18  15  16  2   
 19  15  17  am  
 20  17  18  1   
 21  17  36  1   
 22  18  19  1   
 23  18  20  1   
 24  18  21  1   
 25  21  22  1   
 26  21  23  1   
 27  21  24  1   
 28  24  25  1   
 29  24  26  1   
 30  24  33  1   
 31  26  27  2   
 32  26  28  1   
 33  28  29  1   
 34  29  30  1   
 35  29  31  1   
 36  29  32  1   
 37  33  34  1   
 38  33  35  1   
 39  33  36  1   
 40  36  37  1   
 41  36  38  1   
 42  39  40  1   
@<TRIPOS>SUBSTRUCTURE
  1 ****  17 GROUP 4 **** **** 0

# MOE 2022.02 (io_trps.svl 2020.11)

@<TRIPOS>MOLECULE
ACT124
23 23 1 0 0 
SMALL
USER_CHARGES


@<TRIPOS>ATOM
  1 H       -4.7600     4.2760     0.2950 H     1 <1>   0.1500 
  2 C       -3.7780     3.8130     0.2410 C.ar  1 <1>  -0.1500 
  3 C       -3.6810     2.4280     0.1210 C.ar  1 <1>  -0.1500 
  4 H       -4.6010     1.8470     0.0860 H     1 <1>   0.1500 
  5 C       -2.4180     1.8120     0.0490 C.ar  1 <1>   0.1330 
  6 N       -2.3900     0.3440    -0.0790 N.pl3 1 <1>   0.9070 
  7 O       -3.4730    -0.2540    -0.1460 O.2   1 <1>  -0.5200 
  8 O       -1.2850    -0.2220    -0.1130 O.2   1 <1>  -0.5200 
  9 C       -1.2330     2.5840     0.0970 C.ar  1 <1>   0.1170 
 10 N        0.0480     1.9730     0.0270 N.am  1 <1>  -0.5470 
 11 H        0.0470     0.9550    -0.0520 H     1 <1>   0.3700 
 12 C        1.2960     2.5700     0.0530 C.2   1 <1>   0.5690 
 13 O        1.5430     3.7670     0.1400 O.2   1 <1>  -0.5700 
 14 C        2.4050     1.5530    -0.0400 C.3   1 <1>   0.0610 
 15 H        2.3040     0.9750    -0.9630 H     1 <1>   0.0000 
 16 H        2.3620     0.8790     0.8210 H     1 <1>   0.0000 
 17 H        3.3740     2.0610    -0.0450 H     1 <1>   0.0000 
 18 C       -1.3740     3.9770     0.2180 C.ar  1 <1>  -0.1500 
 19 H       -0.5010     4.6210     0.2600 H     1 <1>   0.1500 
 20 C       -2.6290     4.5980     0.2900 C.ar  1 <1>   0.1000 
 21 N       -2.7250     5.9710     0.4080 N.pl3 1 <1>  -0.9000 
 22 H       -1.8900     6.5420     0.4430 H     1 <1>   0.4000 
 23 H       -3.6230     6.4330     0.4610 H     1 <1>   0.4000 
@<TRIPOS>BOND
  1   1   2  1   
  2   2   3  ar  
  3   2  20  ar  
  4   3   4  1   
  5   3   5  ar  
  6   5   6  1   
  7   5   9  ar  
  8   6   7  2   
  9   6   8  2   
 10   9  10  1   
 11   9  18  ar  
 12  10  11  1   
 13  10  12  am  
 14  12  13  2   
 15  12  14  1   
 16  14  15  1   
 17  14  16  1   
 18  14  17  1   
 19  18  19  1   
 20  18  20  ar  
 21  20  21  1   
 22  21  22  1   
 23  21  23  1   
@<TRIPOS>SUBSTRUCTURE
  1 ****   9 GROUP 4 **** **** 0

# MOE 2022.02 (io_trps.svl 2020.11)

@<TRIPOS>MOLECULE
ACT125
25 26 1 0 0 
SMALL
USER_CHARGES


@<TRIPOS>ATOM
  1 H       -2.7470     1.9390    -0.1940 H     1 <1>   0.5000 
  2 O       -1.7960     2.1730    -0.1540 O.3   1 <1>  -0.6500 
  3 C       -1.7960     3.5180    -0.1290 C.2   1 <1>   0.6340 
  4 O       -2.8350     4.1500    -0.1570 O.2   1 <1>  -0.5700 
  5 C       -0.4300     4.0920    -0.0670 C.ar  1 <1>   0.0860 
  6 C       -0.3000     5.4850    -0.0370 C.ar  1 <1>  -0.1500 
  7 H       -1.1830     6.1210    -0.0580 H     1 <1>   0.1500 
  8 C        0.9650     6.0630     0.0210 C.ar  1 <1>  -0.1500 
  9 H        1.0710     7.1450     0.0460 H     1 <1>   0.1500 
 10 C        2.1030     5.2520     0.0490 C.ar  1 <1>  -0.1500 
 11 H        3.0810     5.7270     0.0940 H     1 <1>   0.1500 
 12 C        1.9970     3.8520     0.0200 C.ar  1 <1>   0.0530 
 13 C        3.1870     3.0030     0.0500 C.2   1 <1>   0.0870 
 14 O        4.3930     3.6480     0.0900 O.3   1 <1>  -0.2800 
 15 C        5.3680     2.6990     0.1140 C.2   1 <1>  -0.0400 
 16 C        6.7580     3.1930     0.1540 C.3   1 <1>   0.1800 
 17 H        7.4630     2.3710     0.3120 H     1 <1>   0.0000 
 18 H        7.0140     3.6880    -0.7870 H     1 <1>   0.0000 
 19 H        6.8870     3.9120     0.9690 H     1 <1>   0.0000 
 20 C        4.8070     1.4430     0.0890 C.2   1 <1>  -0.1500 
 21 H        5.3410     0.5030     0.0990 H     1 <1>   0.1500 
 22 C        3.4040     1.6370     0.0480 C.2   1 <1>  -0.1500 
 23 H        2.6450     0.8690     0.0200 H     1 <1>   0.1500 
 24 C        0.7160     3.2830    -0.0390 C.ar  1 <1>  -0.1500 
 25 H        0.6040     2.2020    -0.0630 H     1 <1>   0.1500 
@<TRIPOS>BOND
  1   1   2  1   
  2   2   3  1   
  3   3   4  2   
  4   3   5  1   
  5   5   6  ar  
  6   5  24  ar  
  7   6   7  1   
  8   6   8  ar  
  9   8   9  1   
 10   8  10  ar  
 11  10  11  1   
 12  10  12  ar  
 13  12  13  1   
 14  12  24  ar  
 15  13  14  1   
 16  13  22  2   
 17  14  15  1   
 18  15  16  1   
 19  15  20  2   
 20  16  17  1   
 21  16  18  1   
 22  16  19  1   
 23  20  21  1   
 24  20  22  1   
 25  22  23  1   
 26  24  25  1   
@<TRIPOS>SUBSTRUCTURE
  1 ****  12 GROUP 4 **** **** 0

# MOE 2022.02 (io_trps.svl 2020.11)

@<TRIPOS>MOLECULE
ACT126
17 16 1 0 0 
SMALL
USER_CHARGES


@<TRIPOS>ATOM
  1 H        7.1970     0.8940    -0.0230 H     1 <1>   0.0000 
  2 C        6.2410     0.3660     0.0440 C.3   1 <1>   0.0000 
  3 H        6.2090    -0.1870     0.9890 H     1 <1>   0.0000 
  4 H        6.1890    -0.3750    -0.7610 H     1 <1>   0.0000 
  5 C        5.0800     1.3360    -0.0460 C.3   1 <1>   0.2800 
  6 H        5.1170     1.8700    -1.0020 H     1 <1>   0.0000 
  7 H        5.1340     2.0540     0.7800 H     1 <1>   0.0000 
  8 O        3.8620     0.5870     0.0410 O.3   1 <1>  -0.4300 
  9 C        2.7320     1.3490    -0.0090 C.2   1 <1>   0.6590 
 10 O        2.7080     2.5660    -0.1210 O.2   1 <1>  -0.5700 
 11 C        1.5220     0.4510     0.0890 C.3   1 <1>   0.0610 
 12 H        1.5170    -0.2190    -0.7770 H     1 <1>   0.0000 
 13 H        1.6050    -0.1450     1.0040 H     1 <1>   0.0000 
 14 C        0.2260     1.2420     0.1260 C.3   1 <1>   0.0000 
 15 H        0.2040     1.9210     0.9850 H     1 <1>   0.0000 
 16 H       -0.6300     0.5650     0.2010 H     1 <1>   0.0000 
 17 H        0.1070     1.8450    -0.7810 H     1 <1>   0.0000 
@<TRIPOS>BOND
  1   1   2  1   
  2   2   3  1   
  3   2   4  1   
  4   2   5  1   
  5   5   6  1   
  6   5   7  1   
  7   5   8  1   
  8   8   9  1   
  9   9  10  2   
 10   9  11  1   
 11  11  12  1   
 12  11  13  1   
 13  11  14  1   
 14  14  15  1   
 15  14  16  1   
 16  14  17  1   
@<TRIPOS>SUBSTRUCTURE
  1 ****   9 GROUP 4 **** **** 0

# MOE 2022.02 (io_trps.svl 2020.11)

@<TRIPOS>MOLECULE
ACT127
26 28 1 0 0 
SMALL
USER_CHARGES


@<TRIPOS>ATOM
  1 H        1.7060     4.2840    -0.0020 H     1 <1>   0.1500 
  2 C        0.7720     3.7270    -0.0010 C.ar  1 <1>  -0.1500 
  3 C        0.7910     2.3330     0.0010 C.ar  1 <1>  -0.1500 
  4 H        1.7390     1.8010     0.0010 H     1 <1>   0.1500 
  5 C       -0.4090     1.6200     0.0010 C.ar  1 <1>  -0.1500 
  6 H       -0.3840     0.5310     0.0020 H     1 <1>   0.1500 
  7 C       -1.6340     2.3010     0.0010 C.ar  1 <1>   0.0860 
  8 C       -1.6500     3.6930     0.0000 C.ar  1 <1>   0.0860 
  9 C       -0.4450     4.4080    -0.0010 C.ar  1 <1>  -0.1500 
 10 H       -0.4520     5.4970    -0.0020 H     1 <1>   0.1500 
 11 C       -2.9310     4.4210    -0.0010 C.2   1 <1>   0.3980 
 12 O       -2.9420     5.6470    -0.0020 O.2   1 <1>  -0.5700 
 13 C       -4.1960     3.6600     0.0000 C.ar  1 <1>   0.0860 
 14 C       -5.4040     4.3700    -0.0010 C.ar  1 <1>  -0.1500 
 15 H       -5.4050     5.4590    -0.0020 H     1 <1>   0.1500 
 16 C       -6.6140     3.6840     0.0000 C.ar  1 <1>  -0.1500 
 17 H       -7.5530     4.2320     0.0000 H     1 <1>   0.1500 
 18 C       -6.6200     2.2890     0.0020 C.ar  1 <1>  -0.1500 
 19 H       -7.5740     1.7680     0.0020 H     1 <1>   0.1500 
 20 C       -5.4230     1.5600     0.0020 C.ar  1 <1>   0.1000 
 21 N       -5.4920     0.1740     0.0040 N.pl3 1 <1>  -0.9000 
 22 H       -6.3630    -0.3330     0.0040 H     1 <1>   0.4000 
 23 H       -4.6110    -0.3460     0.0040 H     1 <1>   0.4000 
 24 C       -4.1960     2.2600     0.0010 C.ar  1 <1>   0.0860 
 25 C       -2.8960     1.5340     0.0020 C.2   1 <1>   0.3980 
 26 O       -2.8450     0.3070     0.0030 O.2   1 <1>  -0.5700 
@<TRIPOS>BOND
  1   1   2  1   
  2   2   3  ar  
  3   2   9  ar  
  4   3   4  1   
  5   3   5  ar  
  6   5   6  1   
  7   5   7  ar  
  8   7   8  ar  
  9   7  25  1   
 10   8   9  ar  
 11   8  11  1   
 12   9  10  1   
 13  11  12  2   
 14  11  13  1   
 15  13  14  ar  
 16  13  24  ar  
 17  14  15  1   
 18  14  16  ar  
 19  16  17  1   
 20  16  18  ar  
 21  18  19  1   
 22  18  20  ar  
 23  20  21  1   
 24  20  24  ar  
 25  21  22  1   
 26  21  23  1   
 27  24  25  1   
 28  25  26  2   
@<TRIPOS>SUBSTRUCTURE
  1 ****  24 GROUP 4 **** **** 0

# MOE 2022.02 (io_trps.svl 2020.11)

@<TRIPOS>MOLECULE
ACT128
34 36 1 0 0 
SMALL
USER_CHARGES


@<TRIPOS>ATOM
  1 H       -1.6810    -0.5870     2.0970 H     1 <1>   0.5000 
  2 O       -2.1010     0.2530     1.8180 O.3   1 <1>  -0.6500 
  3 C       -2.6220    -0.0400     0.6100 C.2   1 <1>   0.6340 
  4 O       -2.6550    -1.1710     0.1660 O.2   1 <1>  -0.5700 
  5 C       -3.2600     1.1540     0.0220 C.ar  1 <1>   0.0860 
  6 C       -4.6090     1.0170    -0.3380 C.ar  1 <1>  -0.1500 
  7 H       -5.1040     0.0520    -0.2480 H     1 <1>   0.1500 
  8 C       -5.3290     2.1220    -0.7900 C.ar  1 <1>  -0.1500 
  9 H       -6.3760     2.0130    -1.0640 H     1 <1>   0.1500 
 10 C       -4.7060     3.3650    -0.8910 C.ar  1 <1>  -0.1500 
 11 H       -5.2670     4.2200    -1.2610 H     1 <1>   0.1500 
 12 C       -3.3570     3.5070    -0.5540 C.ar  1 <1>  -0.1500 
 13 H       -2.8930     4.4760    -0.7280 H     1 <1>   0.1500 
 14 C       -2.6210     2.4010    -0.0950 C.ar  1 <1>  -0.0230 
 15 N       -1.2250     2.5360     0.1340 N.pl3 1 <1>   0.5930 
 16 N       -0.3940     1.5230    -0.2020 N.2   1 <1>  -0.7070 
 17 C        0.8510     1.9980    -0.0630 C.2   1 <1>   0.2350 
 18 C        2.0250     1.1800    -0.3910 C.ar  1 <1>   0.0540 
 19 C        3.3250     1.7020    -0.3080 C.ar  1 <1>  -0.1500 
 20 H        3.5000     2.7290    -0.0020 H     1 <1>   0.1500 
 21 C        4.4350     0.9100    -0.6230 C.ar  1 <1>  -0.1500 
 22 H        5.4360     1.3280    -0.5550 H     1 <1>   0.1500 
 23 C        4.2600    -0.4120    -1.0250 C.ar  1 <1>  -0.1500 
 24 H        5.1230    -1.0260    -1.2710 H     1 <1>   0.1500 
 25 C        2.9770    -0.9460    -1.1130 C.ar  1 <1>  -0.1500 
 26 H        2.8340    -1.9760    -1.4280 H     1 <1>   0.1500 
 27 C        1.8680    -0.1550    -0.7990 C.ar  1 <1>  -0.1500 
 28 H        0.8740    -0.5930    -0.8770 H     1 <1>   0.1500 
 29 C        0.8070     3.3170     0.4470 C.2   1 <1>  -0.1500 
 30 H        1.6350     3.9610     0.7110 H     1 <1>   0.1500 
 31 C       -0.5290     3.6170     0.6370 C.2   1 <1>  -0.2370 
 32 C       -1.0780     4.7800     1.2790 C.2   1 <1>   0.5950 
 33 H       -2.1430     4.7360     1.5610 H     1 <1>   0.0600 
 34 O       -0.4320     5.7900     1.5450 O.2   1 <1>  -0.5700 
@<TRIPOS>BOND
  1   1   2  1   
  2   2   3  1   
  3   3   4  2   
  4   3   5  1   
  5   5   6  ar  
  6   5  14  ar  
  7   6   7  1   
  8   6   8  ar  
  9   8   9  1   
 10   8  10  ar  
 11  10  11  1   
 12  10  12  ar  
 13  12  13  1   
 14  12  14  ar  
 15  14  15  1   
 16  15  16  1   
 17  15  31  1   
 18  16  17  2   
 19  17  18  1   
 20  17  29  1   
 21  18  19  ar  
 22  18  27  ar  
 23  19  20  1   
 24  19  21  ar  
 25  21  22  1   
 26  21  23  ar  
 27  23  24  1   
 28  23  25  ar  
 29  25  26  1   
 30  25  27  ar  
 31  27  28  1   
 32  29  30  1   
 33  29  31  2   
 34  31  32  1   
 35  32  33  1   
 36  32  34  2   
@<TRIPOS>SUBSTRUCTURE
  1 ****  16 GROUP 4 **** **** 0

# MOE 2022.02 (io_trps.svl 2020.11)

@<TRIPOS>MOLECULE
ACT129
24 23 1 0 0 
SMALL
USER_CHARGES


@<TRIPOS>ATOM
  1 H        5.6030    -0.9940     0.0500 H     1 <1>   0.0600 
  2 C        5.6320     0.0940    -0.1350 C.2   1 <1>   0.4490 
  3 O        6.6200     0.6190    -0.6380 O.2   1 <1>  -0.5700 
  4 C        4.4030     0.8590     0.2700 C.3   1 <1>   0.0610 
  5 H        4.6090     1.9270     0.1560 H     1 <1>   0.0000 
  6 H        4.2210     0.6570     1.3310 H     1 <1>   0.0000 
  7 C        3.2240     0.4030    -0.5900 C.3   1 <1>   0.2700 
  8 H        3.4020     0.6410    -1.6470 H     1 <1>   0.0000 
  9 H        3.1920    -0.6920    -0.5350 H     1 <1>   0.0000 
 10 N        1.9450     0.9770    -0.1250 N.3   1 <1>  -0.8100 
 11 C        1.8240     2.3890    -0.5460 C.3   1 <1>   0.2700 
 12 H        2.7810     2.9100    -0.4310 H     1 <1>   0.0000 
 13 H        1.5580     2.4630    -1.6080 H     1 <1>   0.0000 
 14 C        0.8200     3.1580     0.3080 C.3   1 <1>   0.0000 
 15 H        0.8340     4.2180     0.0330 H     1 <1>   0.0000 
 16 H        1.0720     3.0850     1.3710 H     1 <1>   0.0000 
 17 H       -0.2050     2.7990     0.1720 H     1 <1>   0.0000 
 18 C        0.8020     0.1880    -0.6300 C.3   1 <1>   0.2700 
 19 H       -0.1310     0.7500    -0.5240 H     1 <1>   0.0000 
 20 H        0.9140    -0.0280    -1.7000 H     1 <1>   0.0000 
 21 C        0.6070    -1.1070     0.1540 C.3   1 <1>   0.0000 
 22 H       -0.3080    -1.6080    -0.1800 H     1 <1>   0.0000 
 23 H        0.5050    -0.9040     1.2260 H     1 <1>   0.0000 
 24 H        1.4330    -1.8090     0.0130 H     1 <1>   0.0000 
@<TRIPOS>BOND
  1   1   2  1   
  2   2   3  2   
  3   2   4  1   
  4   4   5  1   
  5   4   6  1   
  6   4   7  1   
  7   7   8  1   
  8   7   9  1   
  9   7  10  1   
 10  10  11  1   
 11  10  18  1   
 12  11  12  1   
 13  11  13  1   
 14  11  14  1   
 15  14  15  1   
 16  14  16  1   
 17  14  17  1   
 18  18  19  1   
 19  18  20  1   
 20  18  21  1   
 21  21  22  1   
 22  21  23  1   
 23  21  24  1   
@<TRIPOS>SUBSTRUCTURE
  1 ****   7 GROUP 4 **** **** 0

# MOE 2022.02 (io_trps.svl 2020.11)

@<TRIPOS>MOLECULE
ACT130
27 27 1 0 0 
SMALL
USER_CHARGES


@<TRIPOS>ATOM
  1 H       10.0220    -2.3140     0.7490 H     1 <1>   0.4000 
  2 O        9.7150    -2.8550     1.5050 O.3   1 <1>  -0.6800 
  3 C        8.3070    -2.6860     1.5520 C.3   1 <1>   0.3410 
  4 H        8.0690    -1.9360     2.3130 H     1 <1>   0.0000 
  5 H        7.8520    -3.6400     1.8340 H     1 <1>   0.0000 
  6 C        7.7410    -2.2180     0.2110 C.2   1 <1>   0.5690 
  7 O        8.4750    -1.7980    -0.6810 O.2   1 <1>  -0.5700 
  8 N        6.3750    -2.2990     0.1120 N.am  1 <1>  -0.7300 
  9 H        5.8220    -2.6340     0.8900 H     1 <1>   0.3700 
 10 C        5.6660    -1.8930    -1.0800 C.3   1 <1>   0.4440 
 11 H        5.4620    -0.8190    -1.0040 H     1 <1>   0.0000 
 12 H        6.3090    -2.0230    -1.9590 H     1 <1>   0.0000 
 13 C        4.3880    -2.6780    -1.2380 C.ar  1 <1>  -0.1440 
 14 C        4.3870    -3.8190    -2.0590 C.ar  1 <1>  -0.1500 
 15 H        5.2940    -4.1190    -2.5800 H     1 <1>   0.1500 
 16 C        3.2300    -4.5800    -2.2180 C.ar  1 <1>  -0.1500 
 17 H        3.2390    -5.4580    -2.8580 H     1 <1>   0.1500 
 18 C        2.0650    -4.2130    -1.5520 C.ar  1 <1>  -0.1500 
 19 H        1.1620    -4.8060    -1.6730 H     1 <1>   0.1500 
 20 C        2.0550    -3.0890    -0.7220 C.ar  1 <1>  -0.1500 
 21 H        1.1270    -2.8480    -0.2130 H     1 <1>   0.1500 
 22 C        3.2100    -2.3180    -0.5560 C.ar  1 <1>   0.0820 
 23 O        3.3020    -1.2180     0.2570 O.3   1 <1>  -0.3630 
 24 C        2.0990    -0.7390     0.8460 C.3   1 <1>   0.2800 
 25 H        2.3380     0.1780     1.3930 H     1 <1>   0.0000 
 26 H        1.3550    -0.4870     0.0830 H     1 <1>   0.0000 
 27 H        1.7010    -1.4620     1.5660 H     1 <1>   0.0000 
@<TRIPOS>BOND
  1   1   2  1   
  2   2   3  1   
  3   3   4  1   
  4   3   5  1   
  5   3   6  1   
  6   6   7  2   
  7   6   8  am  
  8   8   9  1   
  9   8  10  1   
 10  10  11  1   
 11  10  12  1   
 12  10  13  1   
 13  13  14  ar  
 14  13  22  ar  
 15  14  15  1   
 16  14  16  ar  
 17  16  17  1   
 18  16  18  ar  
 19  18  19  1   
 20  18  20  ar  
 21  20  21  1   
 22  20  22  ar  
 23  22  23  1   
 24  23  24  1   
 25  24  25  1   
 26  24  26  1   
 27  24  27  1   
@<TRIPOS>SUBSTRUCTURE
  1 ****  13 GROUP 4 **** **** 0

# MOE 2022.02 (io_trps.svl 2020.11)

@<TRIPOS>MOLECULE
ACT131
21 21 1 0 0 
SMALL
USER_CHARGES


@<TRIPOS>ATOM
  1 H        0.5460     0.8070     0.0200 H     1 <1>   0.1500 
  2 C        0.0070    -0.1350     0.0800 C.ar  1 <1>  -0.1500 
  3 C       -1.3700    -0.1350     0.2680 C.ar  1 <1>  -0.1500 
  4 H       -1.9110     0.8030     0.3590 H     1 <1>   0.1500 
  5 C       -2.0570    -1.3450     0.3440 C.ar  1 <1>  -0.1500 
  6 H       -3.1340    -1.3340     0.5010 H     1 <1>   0.1500 
  7 C       -1.3800    -2.5730     0.2190 C.ar  1 <1>  -0.1440 
  8 C       -2.1510    -3.8690     0.3430 C.3   1 <1>   0.4140 
  9 H       -1.5730    -4.7130    -0.0490 H     1 <1>   0.0000 
 10 H       -2.3390    -4.0640     1.4040 H     1 <1>   0.0000 
 11 N       -3.4260    -3.8410    -0.3800 N.3   1 <1>  -0.9900 
 12 H       -3.2240    -3.6730    -1.3650 H     1 <1>   0.3600 
 13 H       -3.8450    -4.7670    -0.3310 H     1 <1>   0.3600 
 14 C        0.0190    -2.5650     0.0500 C.ar  1 <1>   0.0820 
 15 O        0.6250    -3.7930    -0.0250 O.3   1 <1>  -0.3630 
 16 C        2.0380    -3.8220    -0.1850 C.3   1 <1>   0.2800 
 17 H        2.3470    -4.8700    -0.2290 H     1 <1>   0.0000 
 18 H        2.3390    -3.3480    -1.1250 H     1 <1>   0.0000 
 19 H        2.5410    -3.3620     0.6720 H     1 <1>   0.0000 
 20 C        0.7000    -1.3430    -0.0260 C.ar  1 <1>  -0.1500 
 21 H        1.7750    -1.2950    -0.1630 H     1 <1>   0.1500 
@<TRIPOS>BOND
  1   1   2  1   
  2   2   3  ar  
  3   2  20  ar  
  4   3   4  1   
  5   3   5  ar  
  6   5   6  1   
  7   5   7  ar  
  8   7   8  1   
  9   7  14  ar  
 10   8   9  1   
 11   8  10  1   
 12   8  11  1   
 13  11  12  1   
 14  11  13  1   
 15  14  15  1   
 16  14  20  ar  
 17  15  16  1   
 18  16  17  1   
 19  16  18  1   
 20  16  19  1   
 21  20  21  1   
@<TRIPOS>SUBSTRUCTURE
  1 ****   7 GROUP 4 **** **** 0

# MOE 2022.02 (io_trps.svl 2020.11)

@<TRIPOS>MOLECULE
ACT132
32 34 1 0 0 
SMALL
USER_CHARGES


@<TRIPOS>ATOM
  1 H        8.2950     0.6570    -0.3700 H     1 <1>   0.0600 
  2 C        8.8450     1.5780    -0.6280 C.2   1 <1>   0.4490 
  3 O        9.7910     1.5440    -1.4090 O.2   1 <1>  -0.5700 
  4 C        8.4030     2.8220     0.0990 C.3   1 <1>   0.3410 
  5 H        8.9000     3.6930    -0.3390 H     1 <1>   0.0000 
  6 H        8.6620     2.7080     1.1570 H     1 <1>   0.0000 
  7 O        6.9870     2.9180    -0.0650 O.3   1 <1>  -0.4300 
  8 C        6.4360     3.9800     0.5780 C.2   1 <1>   0.6340 
  9 O        7.0380     4.7920     1.2570 O.2   1 <1>  -0.5700 
 10 C        4.9770     4.0050     0.3070 C.ar  1 <1>   0.0860 
 11 C        4.2920     2.7870     0.3270 C.ar  1 <1>  -0.1500 
 12 H        4.8070     1.8540     0.5300 H     1 <1>   0.1500 
 13 C        2.9330     2.7960     0.0880 C.ar  1 <1>   0.3630 
 14 C        2.1310     1.5810     0.0780 C.2   1 <1>   0.0870 
 15 O        2.7870     0.4030     0.3160 O.3   1 <1>  -0.2800 
 16 C        1.8630    -0.5900     0.2590 C.2   1 <1>  -0.0100 
 17 H        2.2400    -1.5890     0.4290 H     1 <1>   0.1500 
 18 C        0.6180    -0.0760    -0.0140 C.2   1 <1>  -0.1500 
 19 H       -0.2980    -0.6400    -0.1160 H     1 <1>   0.1500 
 20 C        0.7890     1.3240    -0.1310 C.2   1 <1>  -0.1500 
 21 H        0.0340     2.0690    -0.3420 H     1 <1>   0.1500 
 22 N        2.2450     3.9340    -0.1560 N.ar  1 <1>  -0.6200 
 23 C        2.9000     5.1060    -0.1690 C.ar  1 <1>   0.3100 
 24 C        2.1640     6.2550    -0.4260 C.ar  1 <1>  -0.1500 
 25 H        1.0940     6.1660    -0.5990 H     1 <1>   0.1500 
 26 C        2.7560     7.5190    -0.4710 C.ar  1 <1>  -0.1500 
 27 H        2.1490     8.3970    -0.6740 H     1 <1>   0.1500 
 28 C        4.1200     7.6430    -0.2550 C.ar  1 <1>  -0.1500 
 29 H        4.5940     8.6210    -0.2870 H     1 <1>   0.1500 
 30 C        4.8810     6.5050     0.0050 C.ar  1 <1>  -0.1500 
 31 H        5.9480     6.6380     0.1690 H     1 <1>   0.1500 
 32 C        4.2870     5.2160     0.0580 C.ar  1 <1>   0.0000 
@<TRIPOS>BOND
  1   1   2  1   
  2   2   3  2   
  3   2   4  1   
  4   4   5  1   
  5   4   6  1   
  6   4   7  1   
  7   7   8  1   
  8   8   9  2   
  9   8  10  1   
 10  10  11  ar  
 11  10  32  ar  
 12  11  12  1   
 13  11  13  ar  
 14  13  14  1   
 15  13  22  ar  
 16  14  15  1   
 17  14  20  2   
 18  15  16  1   
 19  16  17  1   
 20  16  18  2   
 21  18  19  1   
 22  18  20  1   
 23  20  21  1   
 24  22  23  ar  
 25  23  24  ar  
 26  23  32  ar  
 27  24  25  1   
 28  24  26  ar  
 29  26  27  1   
 30  26  28  ar  
 31  28  29  1   
 32  28  30  ar  
 33  30  31  1   
 34  30  32  ar  
@<TRIPOS>SUBSTRUCTURE
  1 ****  11 GROUP 4 **** **** 0

# MOE 2022.02 (io_trps.svl 2020.11)

@<TRIPOS>MOLECULE
ACT133
34 35 1 0 0 
SMALL
USER_CHARGES


@<TRIPOS>ATOM
  1 H        0.7230    -1.6270    -0.5620 H     1 <1>   0.4500 
  2 O        0.5820    -0.6700    -0.6480 O.3   1 <1>  -0.5320 
  3 C        1.7510    -0.0270    -0.3250 C.ar  1 <1>   0.0820 
  4 C        2.8840    -0.7580     0.0300 C.ar  1 <1>  -0.1500 
  5 H        2.8680    -1.8430     0.0630 H     1 <1>   0.1500 
  6 C        4.0590    -0.0810     0.3520 C.ar  1 <1>  -0.1500 
  7 H        4.9470    -0.6410     0.6390 H     1 <1>   0.1500 
  8 C        4.0830     1.3170     0.3060 C.ar  1 <1>  -0.0090 
  9 S        5.5780     2.1720     0.7390 S.o2  1 <1>   1.4470 
 10 O        6.2700     1.3680     1.7220 O.2   1 <1>  -0.6500 
 11 O        5.2490     3.5610     0.9830 O.2   1 <1>  -0.6500 
 12 N        6.3920     2.1470    -0.7580 N.am  1 <1>  -0.7570 
 13 H        6.2910     3.0820    -1.1610 H     1 <1>   0.4200 
 14 C        7.7580     1.7310    -0.7040 C.ar  1 <1>   0.1990 
 15 C        8.7640     2.6550    -0.4230 C.ar  1 <1>  -0.1500 
 16 H        8.5280     3.7040    -0.2660 H     1 <1>   0.1500 
 17 C       10.0950     2.2310    -0.3280 C.ar  1 <1>  -0.1500 
 18 H       10.8530     2.9760    -0.1100 H     1 <1>   0.1500 
 19 C       10.4160     0.8840    -0.5030 C.ar  1 <1>   0.0820 
 20 O       11.6700     0.3410    -0.4380 O.3   1 <1>  -0.3630 
 21 C       12.7400     1.2260    -0.1320 C.3   1 <1>   0.2800 
 22 H       13.6620     0.6390    -0.1040 H     1 <1>   0.0000 
 23 H       12.6050     1.6840     0.8530 H     1 <1>   0.0000 
 24 H       12.8550     1.9880    -0.9100 H     1 <1>   0.0000 
 25 C        9.3960    -0.0350    -0.7670 C.ar  1 <1>  -0.1500 
 26 H        9.6400    -1.0870    -0.8950 H     1 <1>   0.1500 
 27 C        8.0670     0.3830    -0.8600 C.ar  1 <1>  -0.1500 
 28 H        7.2860    -0.3430    -1.0590 H     1 <1>   0.1500 
 29 C        2.9400     2.0480    -0.0370 C.ar  1 <1>  -0.1500 
 30 H        2.9650     3.1340    -0.0510 H     1 <1>   0.1500 
 31 C        1.7620     1.3780    -0.3610 C.ar  1 <1>   0.1000 
 32 N        0.6210     2.0810    -0.7100 N.pl3 1 <1>  -0.9000 
 33 H        0.5880     3.0880    -0.7410 H     1 <1>   0.4000 
 34 H       -0.2030     1.5360    -0.9390 H     1 <1>   0.4000 
@<TRIPOS>BOND
  1   1   2  1   
  2   2   3  1   
  3   3   4  ar  
  4   3  31  ar  
  5   4   5  1   
  6   4   6  ar  
  7   6   7  1   
  8   6   8  ar  
  9   8   9  1   
 10   8  29  ar  
 11   9  10  2   
 12   9  11  2   
 13   9  12  am  
 14  12  13  1   
 15  12  14  1   
 16  14  15  ar  
 17  14  27  ar  
 18  15  16  1   
 19  15  17  ar  
 20  17  18  1   
 21  17  19  ar  
 22  19  20  1   
 23  19  25  ar  
 24  20  21  1   
 25  21  22  1   
 26  21  23  1   
 27  21  24  1   
 28  25  26  1   
 29  25  27  ar  
 30  27  28  1   
 31  29  30  1   
 32  29  31  ar  
 33  31  32  1   
 34  32  33  1   
 35  32  34  1   
@<TRIPOS>SUBSTRUCTURE
  1 ****  12 GROUP 4 **** **** 0

# MOE 2022.02 (io_trps.svl 2020.11)

@<TRIPOS>MOLECULE
ACT134
25 26 1 0 0 
SMALL
USER_CHARGES


@<TRIPOS>ATOM
  1 H       -6.4870    -3.2720     0.7310 H     1 <1>   0.1500 
  2 C       -5.4200    -3.2760     0.5280 C.ar  1 <1>  -0.1500 
  3 C       -4.6190    -2.2280     0.9620 C.ar  1 <1>  -0.1500 
  4 H       -5.0560    -1.4010     1.5160 H     1 <1>   0.1500 
  5 C       -3.2440    -2.2380     0.6950 C.ar  1 <1>  -0.1500 
  6 H       -2.6510    -1.4140     1.0830 H     1 <1>   0.1500 
  7 C       -2.6300    -3.2860    -0.0070 C.ar  1 <1>   0.1000 
  8 N       -1.2770    -3.2940    -0.2700 N.pl3 1 <1>  -0.8380 
  9 C       -0.5020    -4.5410    -0.3650 C.3   1 <1>   0.3690 
 10 H       -0.2740    -4.7260    -1.4220 H     1 <1>   0.0000 
 11 H       -1.0490    -5.4060     0.0230 H     1 <1>   0.0000 
 12 C        0.8060    -4.4120     0.4340 C.3   1 <1>   0.2800 
 13 H        1.4360    -5.2900     0.2560 H     1 <1>   0.0000 
 14 H        0.6010    -4.3630     1.5110 H     1 <1>   0.0000 
 15 O        1.5620    -3.2510     0.0530 O.3   1 <1>  -0.5600 
 16 C        0.7850    -2.0640     0.2820 C.3   1 <1>   0.2800 
 17 H        0.5680    -1.9780     1.3530 H     1 <1>   0.0000 
 18 H        1.4020    -1.2060    -0.0040 H     1 <1>   0.0000 
 19 C       -0.5070    -2.0720    -0.5450 C.3   1 <1>   0.3690 
 20 H       -1.0670    -1.1510    -0.3590 H     1 <1>   0.0000 
 21 H       -0.2500    -2.0760    -1.6120 H     1 <1>   0.0000 
 22 C       -3.4680    -4.3310    -0.4290 C.ar  1 <1>  -0.1500 
 23 H       -3.0620    -5.1590    -1.0040 H     1 <1>   0.1500 
 24 C       -4.8440    -4.3310    -0.1700 C.ar  1 <1>  -0.1500 
 25 H       -5.4600    -5.1530    -0.5210 H     1 <1>   0.1500 
@<TRIPOS>BOND
  1   1   2  1   
  2   2   3  ar  
  3   2  24  ar  
  4   3   4  1   
  5   3   5  ar  
  6   5   6  1   
  7   5   7  ar  
  8   7   8  1   
  9   7  22  ar  
 10   8   9  1   
 11   8  19  1   
 12   9  10  1   
 13   9  11  1   
 14   9  12  1   
 15  12  13  1   
 16  12  14  1   
 17  12  15  1   
 18  15  16  1   
 19  16  17  1   
 20  16  18  1   
 21  16  19  1   
 22  19  20  1   
 23  19  21  1   
 24  22  23  1   
 25  22  24  ar  
 26  24  25  1   
@<TRIPOS>SUBSTRUCTURE
  1 ****   7 GROUP 4 **** **** 0

# MOE 2022.02 (io_trps.svl 2020.11)

@<TRIPOS>MOLECULE
ACT135
25 27 1 0 0 
SMALL
USER_CHARGES


@<TRIPOS>ATOM
  1 H       -0.2220     1.7580    -1.5400 H     1 <1>   0.0000 
  2 C       -0.5000     1.8110    -0.4790 C.3   1 <1>   0.2100 
  3 H       -0.9490     2.7910    -0.2880 H     1 <1>   0.0000 
  4 N        0.5820     1.4400     0.4760 N.3   1 <1>  -0.5770 
  5 C        1.9180     1.4780    -0.1310 C.3   1 <1>   0.0580 
  6 H        2.0210     0.9630    -1.0840 H     1 <1>   0.1000 
  7 C        2.7600     2.7120     0.0490 C.3   1 <1>  -0.2000 
  8 H        2.3540     3.5290     0.6350 H     1 <1>   0.1000 
  9 H        3.3820     3.0240    -0.7800 H     1 <1>   0.1000 
 10 C        3.1230     1.4460     0.7690 C.3   1 <1>  -0.2000 
 11 H        2.9630     1.4090     1.8410 H     1 <1>   0.1000 
 12 H        3.9930     0.8970     0.4290 H     1 <1>   0.1000 
 13 C        0.0270     0.0590     0.5630 C.3   1 <1>   0.2100 
 14 H       -0.0050    -0.3470     1.5790 H     1 <1>   0.0000 
 15 H        0.5080    -0.6780    -0.0920 H     1 <1>   0.0000 
 16 C       -1.2620     0.6120     0.0270 C.3   1 <1>   0.0000 
 17 C       -2.1100    -0.1890    -0.9230 C.3   1 <1>   0.0000 
 18 H       -2.0750    -1.2710    -0.7540 H     1 <1>   0.0000 
 19 H       -1.9830     0.0090    -1.9900 H     1 <1>   0.0000 
 20 C       -3.3360     0.4960    -0.2630 C.3   1 <1>   0.0000 
 21 H       -4.1870    -0.1570    -0.0550 H     1 <1>   0.0000 
 22 H       -3.6870     1.3810    -0.8060 H     1 <1>   0.0000 
 23 C       -2.4340     0.8310     0.9540 C.3   1 <1>   0.0000 
 24 H       -2.5630     1.8350     1.3680 H     1 <1>   0.0000 
 25 H       -2.5130     0.0990     1.7660 H     1 <1>   0.0000 
@<TRIPOS>BOND
  1   1   2  1   
  2   2   3  1   
  3   2   4  1   
  4   2  16  1   
  5   4   5  1   
  6   4  13  1   
  7   5   6  1   
  8   5   7  1   
  9   5  10  1   
 10   7   8  1   
 11   7   9  1   
 12   7  10  1   
 13  10  11  1   
 14  10  12  1   
 15  13  14  1   
 16  13  15  1   
 17  13  16  1   
 18  16  17  1   
 19  16  23  1   
 20  17  18  1   
 21  17  19  1   
 22  17  20  1   
 23  20  21  1   
 24  20  22  1   
 25  20  23  1   
 26  23  24  1   
 27  23  25  1   
@<TRIPOS>SUBSTRUCTURE
  1 ****   4 GROUP 4 **** **** 0

# MOE 2022.02 (io_trps.svl 2020.11)

@<TRIPOS>MOLECULE
ACT136
19 18 1 0 0 
SMALL
USER_CHARGES


@<TRIPOS>ATOM
  1 H        0.3050    -2.0370     0.8030 H     1 <1>   0.0000 
  2 C        0.2480    -1.1410     0.1750 C.3   1 <1>   0.2700 
  3 H        0.1220    -1.4570    -0.8670 H     1 <1>   0.0000 
  4 H       -0.6540    -0.6020     0.4840 H     1 <1>   0.0000 
  5 N        1.4380    -0.3050     0.3590 N.3   1 <1>  -0.8100 
  6 C        1.3020     0.9220    -0.4290 C.3   1 <1>   0.2700 
  7 H        1.2850     0.7220    -1.5060 H     1 <1>   0.0000 
  8 H        2.1150     1.6230    -0.2170 H     1 <1>   0.0000 
  9 H        0.3770     1.4470    -0.1640 H     1 <1>   0.0000 
 10 C        2.6470    -1.0660    -0.0020 C.3   1 <1>   0.2700 
 11 H        2.6260    -2.0300     0.5240 H     1 <1>   0.0000 
 12 H        2.6600    -1.2920    -1.0770 H     1 <1>   0.0000 
 13 C        3.9450    -0.3540     0.3980 C.3   1 <1>   0.0000 
 14 H        4.0690     0.5750    -0.1690 H     1 <1>   0.0000 
 15 H        3.9140    -0.0880     1.4610 H     1 <1>   0.0000 
 16 C        5.1600    -1.2350     0.1440 C.3   1 <1>   0.0000 
 17 H        5.1040    -2.1590     0.7280 H     1 <1>   0.0000 
 18 H        5.2360    -1.5010    -0.9150 H     1 <1>   0.0000 
 19 H        6.0760    -0.7080     0.4290 H     1 <1>   0.0000 
@<TRIPOS>BOND
  1   1   2  1   
  2   2   3  1   
  3   2   4  1   
  4   2   5  1   
  5   5   6  1   
  6   5  10  1   
  7   6   7  1   
  8   6   8  1   
  9   6   9  1   
 10  10  11  1   
 11  10  12  1   
 12  10  13  1   
 13  13  14  1   
 14  13  15  1   
 15  13  16  1   
 16  16  17  1   
 17  16  18  1   
 18  16  19  1   
@<TRIPOS>SUBSTRUCTURE
  1 ****  10 GROUP 4 **** **** 0

# MOE 2022.02 (io_trps.svl 2020.11)

@<TRIPOS>MOLECULE
ACT137
14 14 1 0 0 
SMALL
USER_CHARGES


@<TRIPOS>ATOM
  1 H        2.7930    -1.7630     0.9600 H     1 <1>   0.0600 
  2 C        2.8410    -0.7910     0.4410 C.2   1 <1>   0.4570 
  3 O        3.8750    -0.1260     0.5090 O.2   1 <1>  -0.5700 
  4 C        1.5580    -0.3980    -0.3200 C.3   1 <1>   0.0530 
  5 H        1.7640    -0.3290    -1.3990 H     1 <1>   0.0000 
  6 C        0.2660    -1.2110    -0.0420 C.3   1 <1>   0.0000 
  7 H        0.2100    -1.6410     0.9650 H     1 <1>   0.0000 
  8 H        0.0290    -1.9890    -0.7730 H     1 <1>   0.0000 
  9 C       -0.5190     0.1040    -0.1990 C.3   1 <1>   0.0000 
 10 H       -0.8480     0.3020    -1.2250 H     1 <1>   0.0000 
 11 H       -1.3650     0.2380     0.4800 H     1 <1>   0.0000 
 12 C        0.7760     0.8420     0.1900 C.3   1 <1>   0.0000 
 13 H        0.9640     1.7750    -0.3480 H     1 <1>   0.0000 
 14 H        0.8750     1.0250     1.2660 H     1 <1>   0.0000 
@<TRIPOS>BOND
  1   1   2  1   
  2   2   3  2   
  3   2   4  1   
  4   4   5  1   
  5   4   6  1   
  6   4  12  1   
  7   6   7  1   
  8   6   8  1   
  9   6   9  1   
 10   9  10  1   
 11   9  11  1   
 12   9  12  1   
 13  12  13  1   
 14  12  14  1   
@<TRIPOS>SUBSTRUCTURE
  1 ****   4 GROUP 4 **** **** 0

# MOE 2022.02 (io_trps.svl 2020.11)

@<TRIPOS>MOLECULE
ACT138
35 37 1 0 0 
SMALL
USER_CHARGES


@<TRIPOS>ATOM
  1 H        0.1380     5.7200    -1.2270 H     1 <1>   0.4500 
  2 O        1.1040     5.7550    -1.3230 O.3   1 <1>  -0.5320 
  3 C        1.6420     4.5850    -0.8720 C.ar  1 <1>   0.0820 
  4 C        0.8420     3.5620    -0.3730 C.ar  1 <1>  -0.1500 
  5 H       -0.2350     3.6750    -0.3360 H     1 <1>   0.1500 
  6 C        1.4500     2.3920     0.0800 C.ar  1 <1>   0.0820 
  7 O        0.6910     1.3670     0.5740 O.3   1 <1>  -0.5320 
  8 H       -0.2460     1.6200     0.5440 H     1 <1>   0.4500 
  9 C        2.8410     2.2330     0.0460 C.ar  1 <1>  -0.1440 
 10 C        3.6200     3.2670    -0.4870 C.ar  1 <1>   0.0820 
 11 C        3.0230     4.4460    -0.9310 C.ar  1 <1>  -0.1500 
 12 H        3.6330     5.2520    -1.3290 H     1 <1>   0.1500 
 13 O        4.9850     3.2210    -0.5800 O.3   1 <1>  -0.3630 
 14 C        5.5630     1.9160    -0.4240 C.3   1 <1>   0.4240 
 15 H        5.3700     1.3600    -1.3520 H     1 <1>   0.0000 
 16 C        7.0660     2.0720    -0.2590 C.ar  1 <1>  -0.1440 
 17 C        7.6020     3.1130     0.5200 C.ar  1 <1>  -0.1500 
 18 H        6.9330     3.8290     0.9910 H     1 <1>   0.1500 
 19 C        8.9790     3.2210     0.6800 C.ar  1 <1>   0.0820 
 20 O        9.5360     4.2250     1.4270 O.3   1 <1>  -0.5320 
 21 H        8.8150     4.7990     1.7380 H     1 <1>   0.4500 
 22 C        9.8380     2.3010     0.0830 C.ar  1 <1>   0.0820 
 23 O       11.1870     2.4350     0.2660 O.3   1 <1>  -0.5320 
 24 H       11.2810     3.2250     0.8310 H     1 <1>   0.4500 
 25 C        9.3210     1.2640    -0.6870 C.ar  1 <1>   0.0820 
 26 O       10.1710     0.3660    -1.2660 O.3   1 <1>  -0.5320 
 27 H        9.6610    -0.2670    -1.7930 H     1 <1>   0.4500 
 28 C        7.9400     1.1450    -0.8590 C.ar  1 <1>  -0.1500 
 29 H        7.5330     0.3330    -1.4550 H     1 <1>   0.1500 
 30 C        4.9730     1.1810     0.7780 C.3   1 <1>   0.0000 
 31 H        5.4660     0.2160     0.9440 H     1 <1>   0.0000 
 32 H        5.1090     1.7790     1.6890 H     1 <1>   0.0000 
 33 C        3.4860     0.9690     0.5410 C.3   1 <1>   0.1440 
 34 H        3.3360     0.1820    -0.2080 H     1 <1>   0.0000 
 35 H        3.0230     0.6380     1.4780 H     1 <1>   0.0000 
@<TRIPOS>BOND
  1   1   2  1   
  2   2   3  1   
  3   3   4  ar  
  4   3  11  ar  
  5   4   5  1   
  6   4   6  ar  
  7   6   7  1   
  8   6   9  ar  
  9   7   8  1   
 10   9  10  ar  
 11   9  33  1   
 12  10  11  ar  
 13  10  13  1   
 14  11  12  1   
 15  13  14  1   
 16  14  15  1   
 17  14  16  1   
 18  14  30  1   
 19  16  17  ar  
 20  16  28  ar  
 21  17  18  1   
 22  17  19  ar  
 23  19  20  1   
 24  19  22  ar  
 25  20  21  1   
 26  22  23  1   
 27  22  25  ar  
 28  23  24  1   
 29  25  26  1   
 30  25  28  ar  
 31  26  27  1   
 32  28  29  1   
 33  30  31  1   
 34  30  32  1   
 35  30  33  1   
 36  33  34  1   
 37  33  35  1   
@<TRIPOS>SUBSTRUCTURE
  1 ****  14 GROUP 4 **** **** 0

# MOE 2022.02 (io_trps.svl 2020.11)

@<TRIPOS>MOLECULE
ACT139
13 13 1 0 0 
SMALL
USER_CHARGES


@<TRIPOS>ATOM
  1 H        5.6900    -0.9970    -0.2000 H     1 <1>   0.4000 
  2 O        4.7370    -0.8120    -0.2170 O.3   1 <1>  -0.6800 
  3 C        4.0880    -2.0250     0.1470 C.3   1 <1>   0.4600 
  4 H        4.3690    -2.8030    -0.5690 H     1 <1>   0.0000 
  5 H        4.4160    -2.3140     1.1500 H     1 <1>   0.0000 
  6 C        2.6260    -1.7970     0.1220 C.2   1 <1>  -0.0400 
  7 O        1.8460    -2.8910     0.3700 O.3   1 <1>  -0.2800 
  8 C        0.5530    -2.4810     0.3050 C.2   1 <1>  -0.0100 
  9 H       -0.1890    -3.2470     0.4810 H     1 <1>   0.1500 
 10 C        0.4860    -1.1380     0.0210 C.2   1 <1>  -0.1500 
 11 H       -0.4150    -0.5520    -0.0880 H     1 <1>   0.1500 
 12 C        1.8250    -0.6940    -0.0970 C.2   1 <1>  -0.1500 
 13 H        2.1780     0.3040    -0.3170 H     1 <1>   0.1500 
@<TRIPOS>BOND
  1   1   2  1   
  2   2   3  1   
  3   3   4  1   
  4   3   5  1   
  5   3   6  1   
  6   6   7  1   
  7   6  12  2   
  8   7   8  1   
  9   8   9  1   
 10   8  10  2   
 11  10  11  1   
 12  10  12  1   
 13  12  13  1   
@<TRIPOS>SUBSTRUCTURE
  1 ****   6 GROUP 4 **** **** 0

# MOE 2022.02 (io_trps.svl 2020.11)

@<TRIPOS>MOLECULE
ACT140
23 23 1 0 0 
SMALL
USER_CHARGES


@<TRIPOS>ATOM
  1 H        7.7900    -3.1450    -0.7860 H     1 <1>   0.0000 
  2 C        7.8510    -2.2570    -0.1500 C.3   1 <1>   0.0000 
  3 H        7.8710    -2.5820     0.8950 H     1 <1>   0.0000 
  4 H        8.7970    -1.7490    -0.3650 H     1 <1>   0.0000 
  5 C        6.6800    -1.3190    -0.4060 C.3   1 <1>   0.0000 
  6 H        6.7080    -0.9910    -1.4520 H     1 <1>   0.0000 
  7 H        6.8040    -0.4280     0.2200 H     1 <1>   0.0000 
  8 C        5.3430    -2.0050    -0.1080 C.3   1 <1>   0.2700 
  9 H        5.3090    -2.3150     0.9450 H     1 <1>   0.0000 
 10 H        5.2880    -2.9200    -0.7130 H     1 <1>   0.0000 
 11 N        4.1980    -1.1560    -0.4400 N.3   1 <1>  -0.8100 
 12 C        4.0600     0.0310     0.4060 C.3   1 <1>   0.2700 
 13 H        4.7920     0.8070     0.1620 H     1 <1>   0.0000 
 14 H        4.1450    -0.2170     1.4720 H     1 <1>   0.0000 
 15 C        2.6520     0.4940     0.0820 C.3   1 <1>   0.0000 
 16 H        2.6230     1.0410    -0.8680 H     1 <1>   0.0000 
 17 H        2.2470     1.1490     0.8590 H     1 <1>   0.0000 
 18 C        1.8710    -0.8010    -0.0310 C.3   1 <1>   0.3400 
 19 H        1.3300    -1.0240     0.8950 H     1 <1>   0.0000 
 20 F        0.9680    -0.7090    -1.0380 F     1 <1>  -0.3400 
 21 C        2.9170    -1.8750    -0.3260 C.3   1 <1>   0.2700 
 22 H        2.9370    -2.5870     0.5090 H     1 <1>   0.0000 
 23 H        2.6920    -2.4210    -1.2470 H     1 <1>   0.0000 
@<TRIPOS>BOND
  1   1   2  1   
  2   2   3  1   
  3   2   4  1   
  4   2   5  1   
  5   5   6  1   
  6   5   7  1   
  7   5   8  1   
  8   8   9  1   
  9   8  10  1   
 10   8  11  1   
 11  11  12  1   
 12  11  21  1   
 13  12  13  1   
 14  12  14  1   
 15  12  15  1   
 16  15  16  1   
 17  15  17  1   
 18  15  18  1   
 19  18  19  1   
 20  18  20  1   
 21  18  21  1   
 22  21  22  1   
 23  21  23  1   
@<TRIPOS>SUBSTRUCTURE
  1 ****  11 GROUP 4 **** **** 0

# MOE 2022.02 (io_trps.svl 2020.11)

@<TRIPOS>MOLECULE
ACT141
38 40 1 0 0 
SMALL
USER_CHARGES


@<TRIPOS>ATOM
  1 H       -7.2080    -0.7900    -0.2190 H     1 <1>   0.1500 
  2 C       -6.8100     0.2090    -0.0860 C.ar  1 <1>  -0.1500 
  3 C       -7.6260     1.3350    -0.0670 C.ar  1 <1>   0.0820 
  4 O       -8.9850     1.3480    -0.2070 O.3   1 <1>  -0.3630 
  5 C       -9.6260     0.0890    -0.3710 C.3   1 <1>   0.2800 
  6 H      -10.7010     0.2710    -0.4680 H     1 <1>   0.0000 
  7 H       -9.4740    -0.5490     0.5060 H     1 <1>   0.0000 
  8 H       -9.2900    -0.4100    -1.2860 H     1 <1>   0.0000 
  9 C       -7.0410     2.5900     0.1090 C.ar  1 <1>  -0.1500 
 10 H       -7.6790     3.4710     0.1250 H     1 <1>   0.1500 
 11 C       -5.6480     2.7200     0.2640 C.ar  1 <1>   0.0000 
 12 C       -5.0320     3.9560     0.4460 C.ar  1 <1>  -0.1500 
 13 H       -5.6160     4.8720     0.4830 H     1 <1>   0.1500 
 14 C       -3.6460     4.0220     0.5930 C.ar  1 <1>  -0.1500 
 15 H       -3.1990     4.9930     0.7610 H     1 <1>   0.1500 
 16 C       -2.8770     2.8620     0.5520 C.ar  1 <1>   0.4100 
 17 N       -1.5060     2.8800     0.6820 N.pl3 1 <1>  -0.8380 
 18 C       -0.6720     4.0810     0.5990 C.3   1 <1>   0.3690 
 19 H       -0.3740     4.3770     1.6120 H     1 <1>   0.0000 
 20 H       -1.1990     4.9290     0.1510 H     1 <1>   0.0000 
 21 C        0.5860     3.8370    -0.2690 C.3   1 <1>   0.2700 
 22 H        0.2740     3.7470    -1.3190 H     1 <1>   0.0000 
 23 H        1.2260     4.7250    -0.1960 H     1 <1>   0.0000 
 24 N        1.3540     2.6430     0.1370 N.3   1 <1>  -0.8100 
 25 C        2.5060     2.4480    -0.7400 C.3   1 <1>   0.2700 
 26 H        3.0860     1.5740    -0.4230 H     1 <1>   0.0000 
 27 H        3.1790     3.3100    -0.6850 H     1 <1>   0.0000 
 28 H        2.2140     2.3060    -1.7870 H     1 <1>   0.0000 
 29 C        0.4560     1.4670     0.0860 C.3   1 <1>   0.2700 
 30 H        1.0020     0.5770     0.4200 H     1 <1>   0.0000 
 31 H        0.1280     1.2830    -0.9460 H     1 <1>   0.0000 
 32 C       -0.7890     1.6320     0.9850 C.3   1 <1>   0.3690 
 33 H       -1.4040     0.7330     0.8680 H     1 <1>   0.0000 
 34 H       -0.4790     1.6600     2.0370 H     1 <1>   0.0000 
 35 N       -3.4860     1.6650     0.3860 N.ar  1 <1>  -0.6200 
 36 C       -4.8220     1.5880     0.2430 C.ar  1 <1>   0.3100 
 37 C       -5.4230     0.3490     0.0680 C.ar  1 <1>  -0.1500 
 38 H       -4.7930    -0.5370     0.0510 H     1 <1>   0.1500 
@<TRIPOS>BOND
  1   1   2  1   
  2   2   3  ar  
  3   2  37  ar  
  4   3   4  1   
  5   3   9  ar  
  6   4   5  1   
  7   5   6  1   
  8   5   7  1   
  9   5   8  1   
 10   9  10  1   
 11   9  11  ar  
 12  11  12  ar  
 13  11  36  ar  
 14  12  13  1   
 15  12  14  ar  
 16  14  15  1   
 17  14  16  ar  
 18  16  17  1   
 19  16  35  ar  
 20  17  18  1   
 21  17  32  1   
 22  18  19  1   
 23  18  20  1   
 24  18  21  1   
 25  21  22  1   
 26  21  23  1   
 27  21  24  1   
 28  24  25  1   
 29  24  29  1   
 30  25  26  1   
 31  25  27  1   
 32  25  28  1   
 33  29  30  1   
 34  29  31  1   
 35  29  32  1   
 36  32  33  1   
 37  32  34  1   
 38  35  36  ar  
 39  36  37  ar  
 40  37  38  1   
@<TRIPOS>SUBSTRUCTURE
  1 ****  35 GROUP 4 **** **** 0

# MOE 2022.02 (io_trps.svl 2020.11)

@<TRIPOS>MOLECULE
ACT142
14 14 1 0 0 
SMALL
USER_CHARGES


@<TRIPOS>ATOM
  1 H       -2.2280     0.3620     0.2620 H     1 <1>   0.3600 
  2 N       -1.5370     1.0440     0.5730 N.3   1 <1>  -0.9000 
  3 C       -1.7190     2.3180    -0.1240 C.3   1 <1>   0.2700 
  4 H       -2.5290     2.9040     0.3180 H     1 <1>   0.0000 
  5 H       -1.9450     2.1480    -1.1830 H     1 <1>   0.0000 
  6 C       -0.3720     2.9920     0.0430 C.3   1 <1>   0.0000 
  7 H       -0.2290     3.8040    -0.6750 H     1 <1>   0.0000 
  8 H       -0.2730     3.3910     1.0600 H     1 <1>   0.0000 
  9 C        0.6000     1.8490    -0.1690 C.3   1 <1>   0.3400 
 10 H        1.5330     1.9770     0.3850 H     1 <1>   0.0000 
 11 F        0.8980     1.7780    -1.4980 F     1 <1>  -0.3400 
 12 C       -0.1780     0.5970     0.2280 C.3   1 <1>   0.2700 
 13 H        0.2700     0.1130     1.1010 H     1 <1>   0.0000 
 14 H       -0.2040    -0.1230    -0.5970 H     1 <1>   0.0000 
@<TRIPOS>BOND
  1   1   2  1   
  2   2   3  1   
  3   2  12  1   
  4   3   4  1   
  5   3   5  1   
  6   3   6  1   
  7   6   7  1   
  8   6   8  1   
  9   6   9  1   
 10   9  10  1   
 11   9  11  1   
 12   9  12  1   
 13  12  13  1   
 14  12  14  1   
@<TRIPOS>SUBSTRUCTURE
  1 ****   9 GROUP 4 **** **** 0

# MOE 2022.02 (io_trps.svl 2020.11)

@<TRIPOS>MOLECULE
ACT143
18 19 1 0 0 
SMALL
USER_CHARGES


@<TRIPOS>ATOM
  1 H        7.7770    -1.1930     0.0180 H     1 <1>   0.4500 
  2 O        7.0400    -1.8260     0.0110 O.3   1 <1>  -0.5320 
  3 C        5.8670    -1.1330     0.0080 C.ar  1 <1>   0.0820 
  4 C        5.8430     0.2540     0.0130 C.ar  1 <1>  -0.1500 
  5 H        6.7570     0.8380     0.0190 H     1 <1>   0.1500 
  6 C        4.6100     0.9150     0.0090 C.ar  1 <1>  -0.1500 
  7 H        4.5850     2.0020     0.0130 H     1 <1>   0.1500 
  8 C        3.4060     0.2210     0.0010 C.ar  1 <1>   0.3100 
  9 N        2.2490     0.9060    -0.0030 N.ar  1 <1>  -0.6200 
 10 C        1.0960     0.2000    -0.0120 C.ar  1 <1>   0.1600 
 11 H        0.1900     0.7990    -0.0140 H     1 <1>   0.1500 
 12 C        1.0350    -1.1810    -0.0180 C.ar  1 <1>  -0.1500 
 13 H        0.0810    -1.6950    -0.0260 H     1 <1>   0.1500 
 14 C        2.2330    -1.8860    -0.0140 C.ar  1 <1>  -0.1500 
 15 H        2.2150    -2.9720    -0.0190 H     1 <1>   0.1500 
 16 C        3.4490    -1.1900    -0.0050 C.ar  1 <1>   0.0000 
 17 C        4.6840    -1.8610    -0.0010 C.ar  1 <1>  -0.1500 
 18 H        4.7280    -2.9470    -0.0050 H     1 <1>   0.1500 
@<TRIPOS>BOND
  1   1   2  1   
  2   2   3  1   
  3   3   4  ar  
  4   3  17  ar  
  5   4   5  1   
  6   4   6  ar  
  7   6   7  1   
  8   6   8  ar  
  9   8   9  ar  
 10   8  16  ar  
 11   9  10  ar  
 12  10  11  1   
 13  10  12  ar  
 14  12  13  1   
 15  12  14  ar  
 16  14  15  1   
 17  14  16  ar  
 18  16  17  ar  
 19  17  18  1   
@<TRIPOS>SUBSTRUCTURE
  1 ****  16 GROUP 4 **** **** 0

# MOE 2022.02 (io_trps.svl 2020.11)

@<TRIPOS>MOLECULE
ACT144
29 29 1 0 0 
SMALL
USER_CHARGES


@<TRIPOS>ATOM
  1 H       -1.2730    -0.9110     1.0310 H     1 <1>   0.0000 
  2 C       -0.2030    -0.7590     0.8490 C.3   1 <1>   0.0000 
  3 H        0.2330    -0.3570     1.7700 H     1 <1>   0.0000 
  4 H       -0.1070     0.0000     0.0660 H     1 <1>   0.0000 
  5 C        0.4650    -2.0840     0.4590 C.3   1 <1>   0.2700 
  6 H        0.2310    -2.7840     1.2720 H     1 <1>   0.0000 
  7 N        1.9280    -1.9170     0.4060 N.3   1 <1>  -0.8100 
  8 C        2.6420    -3.1800     0.6510 C.3   1 <1>   0.2700 
  9 H        2.6110    -3.3810     1.7290 H     1 <1>   0.0000 
 10 H        2.1520    -4.0270     0.1570 H     1 <1>   0.0000 
 11 C        4.1100    -3.1640     0.1970 C.3   1 <1>   0.0000 
 12 H        4.1720    -3.4990    -0.8470 H     1 <1>   0.0000 
 13 H        4.6830    -3.8830     0.7940 H     1 <1>   0.0000 
 14 C        4.7110    -1.7630     0.3190 C.3   1 <1>   0.0000 
 15 H        4.6520    -1.4600     1.3730 H     1 <1>   0.0000 
 16 C        6.1830    -1.7470    -0.0820 C.3   1 <1>   0.0000 
 17 H        6.7660    -2.4220     0.5550 H     1 <1>   0.0000 
 18 H        6.3170    -2.0660    -1.1210 H     1 <1>   0.0000 
 19 H        6.6030    -0.7410     0.0230 H     1 <1>   0.0000 
 20 C        3.8940    -0.7600    -0.5140 C.3   1 <1>   0.0000 
 21 H        3.8940     0.2050     0.0100 H     1 <1>   0.0000 
 22 H        4.3680    -0.5810    -1.4870 H     1 <1>   0.0000 
 23 C        2.4470    -1.2110    -0.7620 C.3   1 <1>   0.2700 
 24 H        2.4070    -1.8500    -1.6530 H     1 <1>   0.0000 
 25 H        1.8590    -0.3160    -0.9910 H     1 <1>   0.0000 
 26 C       -0.1680    -2.6340    -0.8240 C.3   1 <1>   0.0000 
 27 H       -1.2380    -2.8160    -0.6710 H     1 <1>   0.0000 
 28 H       -0.0730    -1.9350    -1.6610 H     1 <1>   0.0000 
 29 H        0.2850    -3.5860    -1.1210 H     1 <1>   0.0000 
@<TRIPOS>BOND
  1   1   2  1   
  2   2   3  1   
  3   2   4  1   
  4   2   5  1   
  5   5   6  1   
  6   5   7  1   
  7   5  26  1   
  8   7   8  1   
  9   7  23  1   
 10   8   9  1   
 11   8  10  1   
 12   8  11  1   
 13  11  12  1   
 14  11  13  1   
 15  11  14  1   
 16  14  15  1   
 17  14  16  1   
 18  14  20  1   
 19  16  17  1   
 20  16  18  1   
 21  16  19  1   
 22  20  21  1   
 23  20  22  1   
 24  20  23  1   
 25  23  24  1   
 26  23  25  1   
 27  26  27  1   
 28  26  28  1   
 29  26  29  1   
@<TRIPOS>SUBSTRUCTURE
  1 ****   7 GROUP 4 **** **** 0

# MOE 2022.02 (io_trps.svl 2020.11)

@<TRIPOS>MOLECULE
ACT145
20 19 1 0 0 
SMALL
USER_CHARGES


@<TRIPOS>ATOM
  1 H        0.5250    -2.2150    -1.5990 H     1 <1>   0.3600 
  2 N        0.1230    -2.3520    -0.6720 N.3   1 <1>  -0.9900 
  3 H       -0.8150    -1.9510    -0.7110 H     1 <1>   0.3600 
  4 C        0.9140    -1.6250     0.3240 C.3   1 <1>   0.2700 
  5 H        0.9600    -0.5700     0.0300 H     1 <1>   0.0000 
  6 H        0.3920    -1.6830     1.2860 H     1 <1>   0.0000 
  7 C        2.3230    -2.2130     0.4540 C.3   1 <1>   0.2300 
  8 H        2.8380    -2.1730    -0.5120 H     1 <1>   0.0000 
  9 H        2.2630    -3.2570     0.7790 H     1 <1>   0.0000 
 10 S        3.2820    -1.2580     1.6770 S.3   1 <1>  -0.2300 
 11 S        5.0540    -2.3000     1.7530 S.3   1 <1>  -0.2300 
 12 C        5.9800    -1.5910     0.3490 C.3   1 <1>   0.2300 
 13 H        6.0700    -0.5080     0.4880 H     1 <1>   0.0000 
 14 H        5.4270    -1.7850    -0.5760 H     1 <1>   0.0000 
 15 C        7.3720    -2.2270     0.2720 C.3   1 <1>   0.2700 
 16 H        7.9330    -2.0200     1.1910 H     1 <1>   0.0000 
 17 H        7.2950    -3.3150     0.1650 H     1 <1>   0.0000 
 18 N        8.1360    -1.7000    -0.8620 N.3   1 <1>  -0.9900 
 19 H        9.0620    -2.1290    -0.8680 H     1 <1>   0.3600 
 20 H        7.6920    -1.9780    -1.7370 H     1 <1>   0.3600 
@<TRIPOS>BOND
  1   1   2  1   
  2   2   3  1   
  3   2   4  1   
  4   4   5  1   
  5   4   6  1   
  6   4   7  1   
  7   7   8  1   
  8   7   9  1   
  9   7  10  1   
 10  10  11  1   
 11  11  12  1   
 12  12  13  1   
 13  12  14  1   
 14  12  15  1   
 15  15  16  1   
 16  15  17  1   
 17  15  18  1   
 18  18  19  1   
 19  18  20  1   
@<TRIPOS>SUBSTRUCTURE
  1 ****  11 GROUP 4 **** **** 0

# MOE 2022.02 (io_trps.svl 2020.11)

@<TRIPOS>MOLECULE
ACT146
25 26 1 0 0 
SMALL
USER_CHARGES


@<TRIPOS>ATOM
  1 H       10.5170     1.4150    -0.0210 H     1 <1>   0.5000 
  2 O        9.8700     2.1510    -0.0300 O.3   1 <1>  -0.6500 
  3 C        8.6720     1.5420     0.0830 C.2   1 <1>   0.6590 
  4 O        8.6010     0.3280     0.1690 O.2   1 <1>  -0.5700 
  5 C        7.5410     2.5300     0.0860 C.3   1 <1>   0.0610 
  6 H        7.5820     3.1010    -0.8480 H     1 <1>   0.0000 
  7 H        7.6890     3.2140     0.9290 H     1 <1>   0.0000 
  8 C        6.1980     1.8200     0.2120 C.3   1 <1>   0.1810 
  9 H        6.0960     1.0930    -0.6050 H     1 <1>   0.0000 
 10 H        6.1760     1.2420     1.1460 H     1 <1>   0.0000 
 11 C        5.0010     2.7260     0.1910 C.2   1 <1>  -0.1810 
 12 C        4.9680     4.1070     0.2330 C.2   1 <1>  -0.3020 
 13 H        5.7610     4.8420     0.2850 H     1 <1>   0.1500 
 14 N        3.6600     4.5130     0.1950 N.pl3 1 <1>   0.0330 
 15 H        3.3480     5.4730     0.2110 H     1 <1>   0.2700 
 16 C        2.8250     3.4240     0.1350 C.ar  1 <1>  -0.1520 
 17 C        1.4270     3.3600     0.0840 C.ar  1 <1>  -0.1500 
 18 H        0.8160     4.2570     0.0870 H     1 <1>   0.1500 
 19 C        0.8380     2.0930     0.0290 C.ar  1 <1>  -0.1500 
 20 H       -0.2460     2.0090    -0.0110 H     1 <1>   0.1500 
 21 C        1.6180     0.9400     0.0260 C.ar  1 <1>  -0.1500 
 22 H        1.1410    -0.0360    -0.0160 H     1 <1>   0.1500 
 23 C        3.0140     1.0230     0.0770 C.ar  1 <1>  -0.1500 
 24 H        3.6130     0.1170     0.0750 H     1 <1>   0.1500 
 25 C        3.6350     2.2890     0.1320 C.ar  1 <1>   0.0000 
@<TRIPOS>BOND
  1   1   2  1   
  2   2   3  1   
  3   3   4  2   
  4   3   5  1   
  5   5   6  1   
  6   5   7  1   
  7   5   8  1   
  8   8   9  1   
  9   8  10  1   
 10   8  11  1   
 11  11  12  2   
 12  11  25  1   
 13  12  13  1   
 14  12  14  1   
 15  14  15  1   
 16  14  16  1   
 17  16  17  ar  
 18  16  25  ar  
 19  17  18  1   
 20  17  19  ar  
 21  19  20  1   
 22  19  21  ar  
 23  21  22  1   
 24  21  23  ar  
 25  23  24  1   
 26  23  25  ar  
@<TRIPOS>SUBSTRUCTURE
  1 ****  11 GROUP 4 **** **** 0

# MOE 2022.02 (io_trps.svl 2020.11)

@<TRIPOS>MOLECULE
ACT147
17 18 1 0 0 
SMALL
USER_CHARGES


@<TRIPOS>ATOM
  1 H       -5.7440    -0.8520    -0.0130 H     1 <1>   0.1500 
  2 C       -4.8370    -1.4490    -0.0090 C.ar  1 <1>   0.1600 
  3 N       -3.6850    -0.7410    -0.0100 N.ar  1 <1>  -0.6200 
  4 C       -2.5270    -1.4220    -0.0050 C.ar  1 <1>   0.3100 
  5 C       -1.3260    -0.7250    -0.0050 C.ar  1 <1>  -0.1500 
  6 H       -1.3510     0.3620    -0.0100 H     1 <1>   0.1500 
  7 C       -0.0920    -1.3850     0.0000 C.ar  1 <1>  -0.1500 
  8 H        0.8280    -0.8070    -0.0010 H     1 <1>   0.1500 
  9 C       -0.0580    -2.7750     0.0050 C.ar  1 <1>   0.1770 
 10 CL       1.4520    -3.5960     0.0110 Cl    1 <1>  -0.1770 
 11 C       -1.2440    -3.5040     0.0060 C.ar  1 <1>  -0.1500 
 12 H       -1.2080    -4.5900     0.0100 H     1 <1>   0.1500 
 13 C       -2.4800    -2.8340     0.0010 C.ar  1 <1>   0.0000 
 14 C       -3.6950    -3.5320     0.0010 C.ar  1 <1>  -0.1500 
 15 H       -3.7130    -4.6190     0.0050 H     1 <1>   0.1500 
 16 C       -4.8940    -2.8300    -0.0040 C.ar  1 <1>  -0.1500 
 17 H       -5.8470    -3.3460    -0.0040 H     1 <1>   0.1500 
@<TRIPOS>BOND
  1   1   2  1   
  2   2   3  ar  
  3   2  16  ar  
  4   3   4  ar  
  5   4   5  ar  
  6   4  13  ar  
  7   5   6  1   
  8   5   7  ar  
  9   7   8  1   
 10   7   9  ar  
 11   9  10  1   
 12   9  11  ar  
 13  11  12  1   
 14  11  13  ar  
 15  13  14  ar  
 16  14  15  1   
 17  14  16  ar  
 18  16  17  1   
@<TRIPOS>SUBSTRUCTURE
  1 ****  13 GROUP 4 **** **** 0

# MOE 2022.02 (io_trps.svl 2020.11)

@<TRIPOS>MOLECULE
ACT148
19 19 1 0 0 
SMALL
USER_CHARGES


@<TRIPOS>ATOM
  1 H        5.8180     1.2300     0.4840 H     1 <1>   0.4000 
  2 O        5.9500     2.1230     0.1080 O.3   1 <1>  -0.6800 
  3 C        4.6650     2.5390    -0.3560 C.3   1 <1>   0.2800 
  4 H        4.7210     3.6070    -0.5880 H     1 <1>   0.0000 
  5 H        4.4580     1.9850    -1.2770 H     1 <1>   0.0000 
  6 C        3.6190     2.2520     0.7250 C.3   1 <1>   0.2800 
  7 H        3.9250     2.7370     1.6580 H     1 <1>   0.0000 
  8 O        3.6070     0.8210     0.9650 O.3   1 <1>  -0.5600 
  9 C        2.3440     0.3010     0.5050 C.3   1 <1>   0.2800 
 10 H        2.5140    -0.6220    -0.0570 H     1 <1>   0.0000 
 11 H        1.7330     0.0540     1.3800 H     1 <1>   0.0000 
 12 C        1.7040     1.3810    -0.3480 C.3   1 <1>   0.2800 
 13 H        2.0660     1.3360    -1.3810 H     1 <1>   0.0000 
 14 O        0.2870     1.2990    -0.3710 O.3   1 <1>  -0.6800 
 15 H       -0.0210     2.1080    -0.8220 H     1 <1>   0.4000 
 16 C        2.1910     2.6380     0.3490 C.3   1 <1>   0.2800 
 17 H        1.5870     2.8150     1.2480 H     1 <1>   0.0000 
 18 O        2.0670     3.7740    -0.4920 O.3   1 <1>  -0.6800 
 19 H        2.3010     4.5590     0.0370 H     1 <1>   0.4000 
@<TRIPOS>BOND
  1   1   2  1   
  2   2   3  1   
  3   3   4  1   
  4   3   5  1   
  5   3   6  1   
  6   6   7  1   
  7   6   8  1   
  8   6  16  1   
  9   8   9  1   
 10   9  10  1   
 11   9  11  1   
 12   9  12  1   
 13  12  13  1   
 14  12  14  1   
 15  12  16  1   
 16  14  15  1   
 17  16  17  1   
 18  16  18  1   
 19  18  19  1   
@<TRIPOS>SUBSTRUCTURE
  1 ****   6 GROUP 4 **** **** 0

# MOE 2022.02 (io_trps.svl 2020.11)

@<TRIPOS>MOLECULE
ACT149
32 33 1 0 0 
SMALL
USER_CHARGES


@<TRIPOS>ATOM
  1 H        9.9850     0.1160    -1.5340 H     1 <1>   0.0600 
  2 C        9.7190    -0.2780    -0.5380 C.2   1 <1>   0.5950 
  3 O       10.5340    -0.9700     0.0700 O.2   1 <1>  -0.5700 
  4 C        8.4080     0.0730    -0.0450 C.2   1 <1>  -0.0450 
  5 S        7.3740     1.0440    -0.9960 S.3   1 <1>  -0.0800 
  6 C        6.1320     1.0020     0.1840 C.2   1 <1>  -0.1400 
  7 C        4.8340     1.7310    -0.0470 C.3   1 <1>   0.4500 
  8 H        4.8260     2.2410    -1.0190 H     1 <1>   0.0000 
  9 H        4.7830     2.5190     0.7170 H     1 <1>   0.0000 
 10 N        3.6650     0.8470     0.0850 N.3   1 <1>  -0.8100 
 11 C        3.6270    -0.1760    -0.9770 C.3   1 <1>   0.2700 
 12 H        4.2790    -1.0060    -0.6780 H     1 <1>   0.0000 
 13 H        4.0180     0.2130    -1.9260 H     1 <1>   0.0000 
 14 C        2.2240    -0.7390    -1.2540 C.3   1 <1>   0.0000 
 15 H        2.3120    -1.7600    -1.6440 H     1 <1>   0.0000 
 16 H        1.7400    -0.1410    -2.0380 H     1 <1>   0.0000 
 17 C        1.3600    -0.7180     0.0070 C.3   1 <1>   0.0000 
 18 H        1.8580    -1.3310     0.7710 H     1 <1>   0.0000 
 19 C       -0.0170    -1.3250    -0.2440 C.3   1 <1>   0.0000 
 20 H       -0.6180    -1.3160     0.6720 H     1 <1>   0.0000 
 21 H        0.0720    -2.3650    -0.5770 H     1 <1>   0.0000 
 22 H       -0.5640    -0.7700    -1.0140 H     1 <1>   0.0000 
 23 C        1.2470     0.7200     0.5440 C.3   1 <1>   0.0000 
 24 H        0.3170     1.1930     0.2030 H     1 <1>   0.0000 
 25 H        1.1860     0.6760     1.6390 H     1 <1>   0.0000 
 26 C        2.4210     1.6160     0.1270 C.3   1 <1>   0.2700 
 27 H        2.4900     2.4330     0.8560 H     1 <1>   0.0000 
 28 H        2.2170     2.0780    -0.8480 H     1 <1>   0.0000 
 29 C        6.5120     0.2610     1.2880 C.2   1 <1>  -0.1500 
 30 H        5.8680     0.1080     2.1460 H     1 <1>   0.1500 
 31 C        7.8240    -0.2770     1.1540 C.2   1 <1>  -0.1500 
 32 H        8.3180    -0.8920     1.8980 H     1 <1>   0.1500 
@<TRIPOS>BOND
  1   1   2  1   
  2   2   3  2   
  3   2   4  1   
  4   4   5  1   
  5   4  31  2   
  6   5   6  1   
  7   6   7  1   
  8   6  29  2   
  9   7   8  1   
 10   7   9  1   
 11   7  10  1   
 12  10  11  1   
 13  10  26  1   
 14  11  12  1   
 15  11  13  1   
 16  11  14  1   
 17  14  15  1   
 18  14  16  1   
 19  14  17  1   
 20  17  18  1   
 21  17  19  1   
 22  17  23  1   
 23  19  20  1   
 24  19  21  1   
 25  19  22  1   
 26  23  24  1   
 27  23  25  1   
 28  23  26  1   
 29  26  27  1   
 30  26  28  1   
 31  29  30  1   
 32  29  31  1   
 33  31  32  1   
@<TRIPOS>SUBSTRUCTURE
  1 ****   6 GROUP 4 **** **** 0

# MOE 2022.02 (io_trps.svl 2020.11)

@<TRIPOS>MOLECULE
ACT150
39 41 1 0 0 
SMALL
USER_CHARGES


@<TRIPOS>ATOM
  1 H      -11.3300    -0.5610    -1.0630 H     1 <1>   0.1500 
  2 C      -10.8140     0.3410    -0.7450 C.ar  1 <1>   0.1600 
  3 N       -9.4770     0.2120    -0.5910 N.ar  1 <1>  -0.6200 
  4 C       -8.7780     1.2910    -0.1980 C.ar  1 <1>   0.3100 
  5 C       -7.4010     1.1840    -0.0330 C.ar  1 <1>  -0.1500 
  6 H       -6.9610     0.2120    -0.2320 H     1 <1>   0.1500 
  7 C       -6.6180     2.2710     0.3730 C.ar  1 <1>   0.0820 
  8 O       -5.2600     2.2270     0.5540 O.3   1 <1>  -0.3630 
  9 C       -4.5770     1.0150     0.2330 C.3   1 <1>   0.2800 
 10 H       -4.7470     0.7550    -0.8180 H     1 <1>   0.0000 
 11 H       -4.9280     0.2040     0.8830 H     1 <1>   0.0000 
 12 C       -3.0860     1.2470     0.4660 C.3   1 <1>   0.0000 
 13 H       -2.7670     2.1140    -0.1250 H     1 <1>   0.0000 
 14 H       -2.9230     1.5200     1.5170 H     1 <1>   0.0000 
 15 C       -2.2670     0.0060     0.1030 C.3   1 <1>   0.2700 
 16 H       -2.6600    -0.8420     0.6780 H     1 <1>   0.0000 
 17 H       -2.4100    -0.2350    -0.9590 H     1 <1>   0.0000 
 18 N       -0.8460     0.1660     0.4180 N.3   1 <1>  -0.8100 
 19 C       -0.0920    -1.0690     0.1910 C.3   1 <1>   0.2700 
 20 H       -0.2950    -1.8230     0.9590 H     1 <1>   0.0000 
 21 H       -0.3130    -1.5030    -0.7930 H     1 <1>   0.0000 
 22 C        1.3520    -0.6010     0.2370 C.3   1 <1>   0.0000 
 23 H        1.7490    -0.6680     1.2570 H     1 <1>   0.0000 
 24 H        1.9940    -1.2050    -0.4130 H     1 <1>   0.0000 
 25 C        1.3090     0.8570    -0.2040 C.3   1 <1>   0.0000 
 26 H        1.8760     1.0160    -1.1270 H     1 <1>   0.0000 
 27 H        1.7480     1.4940     0.5730 H     1 <1>   0.0000 
 28 C       -0.1670     1.1750    -0.4000 C.3   1 <1>   0.2700 
 29 H       -0.4280     1.0760    -1.4610 H     1 <1>   0.0000 
 30 H       -0.3940     2.1960    -0.0780 H     1 <1>   0.0000 
 31 C       -7.2460     3.4980     0.6220 C.ar  1 <1>   0.1770 
 32 CL      -6.3510     4.8890     1.1280 Cl    1 <1>  -0.1770 
 33 C       -8.6260     3.6320     0.4640 C.ar  1 <1>  -0.1500 
 34 H       -9.0990     4.5910     0.6590 H     1 <1>   0.1500 
 35 C       -9.3950     2.5340     0.0540 C.ar  1 <1>   0.0000 
 36 C      -10.7830     2.6300    -0.1150 C.ar  1 <1>  -0.1500 
 37 H      -11.3030     3.5670     0.0670 H     1 <1>   0.1500 
 38 C      -11.5060     1.5160    -0.5220 C.ar  1 <1>  -0.1500 
 39 H      -12.5800     1.5630    -0.6600 H     1 <1>   0.1500 
@<TRIPOS>BOND
  1   1   2  1   
  2   2   3  ar  
  3   2  38  ar  
  4   3   4  ar  
  5   4   5  ar  
  6   4  35  ar  
  7   5   6  1   
  8   5   7  ar  
  9   7   8  1   
 10   7  31  ar  
 11   8   9  1   
 12   9  10  1   
 13   9  11  1   
 14   9  12  1   
 15  12  13  1   
 16  12  14  1   
 17  12  15  1   
 18  15  16  1   
 19  15  17  1   
 20  15  18  1   
 21  18  19  1   
 22  18  28  1   
 23  19  20  1   
 24  19  21  1   
 25  19  22  1   
 26  22  23  1   
 27  22  24  1   
 28  22  25  1   
 29  25  26  1   
 30  25  27  1   
 31  25  28  1   
 32  28  29  1   
 33  28  30  1   
 34  31  32  1   
 35  31  33  ar  
 36  33  34  1   
 37  33  35  ar  
 38  35  36  ar  
 39  36  37  1   
 40  36  38  ar  
 41  38  39  1   
@<TRIPOS>SUBSTRUCTURE
  1 ****   8 GROUP 4 **** **** 0

# MOE 2022.02 (io_trps.svl 2020.11)

@<TRIPOS>MOLECULE
ACT151
24 25 1 0 0 
SMALL
USER_CHARGES


@<TRIPOS>ATOM
  1 H        5.7580     0.2570     0.2460 H     1 <1>   0.0000 
  2 C        5.5570    -0.4940    -0.5250 C.3   1 <1>   0.2700 
  3 H        6.0650    -1.4200    -0.2340 H     1 <1>   0.0000 
  4 H        6.0280    -0.1570    -1.4560 H     1 <1>   0.0000 
  5 N        4.1370    -0.7510    -0.7480 N.3   1 <1>  -0.8100 
  6 C        3.3890     0.4620    -1.1280 C.3   1 <1>   0.2700 
  7 H        3.9260     1.0830    -1.8540 H     1 <1>   0.0000 
  8 C        2.0680    -0.0200    -1.7600 C.3   1 <1>   0.0000 
  9 H        2.2940    -0.5950    -2.6680 H     1 <1>   0.0000 
 10 H        1.4660     0.8410    -2.0760 H     1 <1>   0.0000 
 11 C        1.2420    -0.8950    -0.8090 C.3   1 <1>   0.0000 
 12 H        0.6840    -0.2480    -0.1220 H     1 <1>   0.0000 
 13 H        0.4910    -1.4610    -1.3720 H     1 <1>   0.0000 
 14 C        2.1230    -1.8490     0.0080 C.3   1 <1>   0.0000 
 15 H        1.5570    -2.2130     0.8740 H     1 <1>   0.0000 
 16 H        2.3580    -2.7290    -0.6060 H     1 <1>   0.0000 
 17 C        3.4380    -1.1930     0.4730 C.3   1 <1>   0.2700 
 18 H        4.0140    -1.9220     1.0530 H     1 <1>   0.0000 
 19 C        3.1830     0.0980     1.2590 C.3   1 <1>   0.0000 
 20 H        2.2540     0.0640     1.8380 H     1 <1>   0.0000 
 21 H        4.0030     0.2910     1.9610 H     1 <1>   0.0000 
 22 C        3.1520     1.1970     0.1960 C.3   1 <1>   0.0000 
 23 H        3.9580     1.9150     0.3890 H     1 <1>   0.0000 
 24 H        2.2070     1.7510     0.2100 H     1 <1>   0.0000 
@<TRIPOS>BOND
  1   1   2  1   
  2   2   3  1   
  3   2   4  1   
  4   2   5  1   
  5   5   6  1   
  6   5  17  1   
  7   6   7  1   
  8   6   8  1   
  9   6  22  1   
 10   8   9  1   
 11   8  10  1   
 12   8  11  1   
 13  11  12  1   
 14  11  13  1   
 15  11  14  1   
 16  14  15  1   
 17  14  16  1   
 18  14  17  1   
 19  17  18  1   
 20  17  19  1   
 21  19  20  1   
 22  19  21  1   
 23  19  22  1   
 24  22  23  1   
 25  22  24  1   
@<TRIPOS>SUBSTRUCTURE
  1 ****   5 GROUP 4 **** **** 0

# MOE 2022.02 (io_trps.svl 2020.11)

@<TRIPOS>MOLECULE
ACT152
19 19 1 0 0 
SMALL
USER_CHARGES


@<TRIPOS>ATOM
  1 H        0.5620    -1.7420    -0.7910 H     1 <1>   0.0000 
  2 C        0.6910    -1.1810     0.1390 C.3   1 <1>   0.3000 
  3 H       -0.2030    -0.5760     0.3110 H     1 <1>   0.0000 
  4 H        0.8100    -1.8800     0.9730 H     1 <1>   0.0000 
  5 N        1.8950    -0.3730     0.0360 N.am  1 <1>  -0.6600 
  6 C        1.8080     1.0000     0.2060 C.2   1 <1>   0.5690 
  7 O        0.7500     1.5770     0.4610 O.2   1 <1>  -0.5700 
  8 C        3.0680     1.8170    -0.0090 C.3   1 <1>   0.0610 
  9 H        3.0640     2.6480     0.7050 H     1 <1>   0.0000 
 10 H        3.0050     2.2440    -1.0170 H     1 <1>   0.0000 
 11 C        4.3600     1.0360     0.1390 C.3   1 <1>   0.0000 
 12 H        4.5270     0.7780     1.1930 H     1 <1>   0.0000 
 13 H        5.2070     1.6510    -0.1840 H     1 <1>   0.0000 
 14 C        4.2790    -0.2260    -0.6970 C.3   1 <1>   0.0000 
 15 H        4.1050     0.0350    -1.7480 H     1 <1>   0.0000 
 16 H        5.2220    -0.7800    -0.6510 H     1 <1>   0.0000 
 17 C        3.1430    -1.0930    -0.1830 C.3   1 <1>   0.3000 
 18 H        2.9590    -1.9060    -0.8930 H     1 <1>   0.0000 
 19 H        3.4200    -1.5460     0.7770 H     1 <1>   0.0000 
@<TRIPOS>BOND
  1   1   2  1   
  2   2   3  1   
  3   2   4  1   
  4   2   5  1   
  5   5   6  am  
  6   5  17  1   
  7   6   7  2   
  8   6   8  1   
  9   8   9  1   
 10   8  10  1   
 11   8  11  1   
 12  11  12  1   
 13  11  13  1   
 14  11  14  1   
 15  14  15  1   
 16  14  16  1   
 17  14  17  1   
 18  17  18  1   
 19  17  19  1   
@<TRIPOS>SUBSTRUCTURE
  1 ****   5 GROUP 4 **** **** 0

# MOE 2022.02 (io_trps.svl 2020.11)

@<TRIPOS>MOLECULE
ACT153
30 32 1 0 0 
SMALL
USER_CHARGES


@<TRIPOS>ATOM
  1 H       -0.2010    -3.4410    -0.3240 H     1 <1>   0.1500 
  2 C        0.0820    -2.4020    -0.2260 C.2   1 <1>  -0.1500 
  3 C       -0.7970    -1.3420    -0.1010 C.2   1 <1>   0.0870 
  4 C       -2.2490    -1.2460    -0.0610 C.ar  1 <1>   0.6730 
  5 N       -2.8020    -0.0290     0.0770 N.ar  1 <1>  -0.6200 
  6 C       -4.1460    -0.0010     0.1050 C.ar  1 <1>   0.1600 
  7 H       -4.5770     0.9900     0.2180 H     1 <1>   0.1500 
  8 C       -4.9460    -1.1300     0.0020 C.ar  1 <1>   0.0000 
  9 C       -6.3540    -1.0950     0.0320 C.ar  1 <1>  -0.1500 
 10 H       -6.8780    -0.1490     0.1420 H     1 <1>   0.1500 
 11 C       -7.0920    -2.2730    -0.0810 C.ar  1 <1>   0.0820 
 12 O       -8.4470    -2.1080    -0.0380 O.3   1 <1>  -0.3630 
 13 C       -9.2440    -3.2770    -0.1870 C.3   1 <1>   0.2800 
 14 H      -10.2950    -2.9740    -0.1410 H     1 <1>   0.0000 
 15 H       -9.0650    -3.9830     0.6310 H     1 <1>   0.0000 
 16 H       -9.0750    -3.7480    -1.1610 H     1 <1>   0.0000 
 17 C       -6.4150    -3.4810    -0.2200 C.ar  1 <1>  -0.1500 
 18 H       -6.9380    -4.4270    -0.3100 H     1 <1>   0.1500 
 19 C       -5.0120    -3.5010    -0.2470 C.ar  1 <1>  -0.1500 
 20 H       -4.4970    -4.4530    -0.3570 H     1 <1>   0.1500 
 21 C       -4.2590    -2.3400    -0.1390 C.ar  1 <1>   0.3100 
 22 N       -2.9220    -2.4090    -0.1710 N.ar  1 <1>  -0.6200 
 23 O       -0.0850    -0.1760     0.0010 O.3   1 <1>  -0.2800 
 24 C        1.2370    -0.4980    -0.0600 C.2   1 <1>  -0.0400 
 25 C        2.1840     0.6300     0.0300 C.3   1 <1>   0.1800 
 26 H        3.2180     0.2730     0.0470 H     1 <1>   0.0000 
 27 H        2.0670     1.2970    -0.8290 H     1 <1>   0.0000 
 28 H        2.0080     1.2070     0.9430 H     1 <1>   0.0000 
 29 C        1.3890    -1.8590    -0.2000 C.2   1 <1>  -0.1500 
 30 H        2.3260    -2.3930    -0.2740 H     1 <1>   0.1500 
@<TRIPOS>BOND
  1   1   2  1   
  2   2   3  2   
  3   2  29  1   
  4   3   4  1   
  5   3  23  1   
  6   4   5  ar  
  7   4  22  ar  
  8   5   6  ar  
  9   6   7  1   
 10   6   8  ar  
 11   8   9  ar  
 12   8  21  ar  
 13   9  10  1   
 14   9  11  ar  
 15  11  12  1   
 16  11  17  ar  
 17  12  13  1   
 18  13  14  1   
 19  13  15  1   
 20  13  16  1   
 21  17  18  1   
 22  17  19  ar  
 23  19  20  1   
 24  19  21  ar  
 25  21  22  ar  
 26  23  24  1   
 27  24  25  1   
 28  24  29  2   
 29  25  26  1   
 30  25  27  1   
 31  25  28  1   
 32  29  30  1   
@<TRIPOS>SUBSTRUCTURE
  1 ****  22 GROUP 4 **** **** 0

# MOE 2022.02 (io_trps.svl 2020.11)

@<TRIPOS>MOLECULE
ACT154
5 4 1 0 0 
SMALL
USER_CHARGES


@<TRIPOS>ATOM
  1 H        0.0190    -0.8680    -0.7980 H     1 <1>   0.0000 
  2 C        0.0420    -0.1430     0.0200 C.3   1 <1>   1.0200 
  3 F       -1.0210    -0.3000     0.8370 F     1 <1>  -0.3400 
  4 F        0.0180     1.1210    -0.4540 F     1 <1>  -0.3400 
  5 F        1.1610    -0.2860     0.7610 F     1 <1>  -0.3400 
@<TRIPOS>BOND
  1   1   2  1   
  2   2   3  1   
  3   2   4  1   
  4   2   5  1   
@<TRIPOS>SUBSTRUCTURE
  1 ****   2 GROUP 4 **** **** 0

# MOE 2022.02 (io_trps.svl 2020.11)

@<TRIPOS>MOLECULE
ACT155
22 21 1 0 0 
SMALL
USER_CHARGES


@<TRIPOS>ATOM
  1 H       -0.4150     0.2650    -0.3470 H     1 <1>   0.4000 
  2 O        0.1630    -0.4270    -0.7100 O.3   1 <1>  -0.6800 
  3 C        0.1450    -1.5190     0.2160 C.3   1 <1>   0.2800 
  4 H        0.2350    -1.1000     1.2240 H     1 <1>   0.0000 
  5 C       -1.1830    -2.2440     0.0580 C.3   1 <1>   0.0000 
  6 H       -2.0180    -1.5570     0.2360 H     1 <1>   0.0000 
  7 H       -1.3030    -2.6260    -0.9620 H     1 <1>   0.0000 
  8 H       -1.2660    -3.0800     0.7590 H     1 <1>   0.0000 
  9 C        1.3300    -2.4500    -0.0710 C.3   1 <1>   0.2800 
 10 H        1.1930    -3.4020     0.4510 H     1 <1>   0.0000 
 11 H        1.4170    -2.6270    -1.1490 H     1 <1>   0.0000 
 12 O        2.5310    -1.8340     0.4130 O.3   1 <1>  -0.5600 
 13 C        3.7280    -2.4840    -0.0240 C.3   1 <1>   0.2800 
 14 H        3.6800    -2.6590    -1.1060 H     1 <1>   0.0000 
 15 C        4.8800    -1.5260     0.2580 C.3   1 <1>   0.0000 
 16 H        5.8370    -1.9460    -0.0690 H     1 <1>   0.0000 
 17 H        4.9450    -1.2930     1.3270 H     1 <1>   0.0000 
 18 H        4.7220    -0.5750    -0.2620 H     1 <1>   0.0000 
 19 C        3.9420    -3.8010     0.7140 C.3   1 <1>   0.0000 
 20 H        3.8870    -3.6560     1.7990 H     1 <1>   0.0000 
 21 H        3.1690    -4.5300     0.4520 H     1 <1>   0.0000 
 22 H        4.9130    -4.2400     0.4660 H     1 <1>   0.0000 
@<TRIPOS>BOND
  1   1   2  1   
  2   2   3  1   
  3   3   4  1   
  4   3   5  1   
  5   3   9  1   
  6   5   6  1   
  7   5   7  1   
  8   5   8  1   
  9   9  10  1   
 10   9  11  1   
 11   9  12  1   
 12  12  13  1   
 13  13  14  1   
 14  13  15  1   
 15  13  19  1   
 16  15  16  1   
 17  15  17  1   
 18  15  18  1   
 19  19  20  1   
 20  19  21  1   
 21  19  22  1   
@<TRIPOS>SUBSTRUCTURE
  1 ****  12 GROUP 4 **** **** 0

# MOE 2022.02 (io_trps.svl 2020.11)

@<TRIPOS>MOLECULE
ACT156
29 29 1 0 0 
SMALL
USER_CHARGES


@<TRIPOS>ATOM
  1 H        0.8780    -2.9980     1.0200 H     1 <1>   0.4000 
  2 O        1.5740    -2.8120     0.3670 O.3   1 <1>  -0.6800 
  3 C        1.3290    -1.5070    -0.1610 C.3   1 <1>   0.2800 
  4 H        0.4140    -1.5890    -0.7600 H     1 <1>   0.0000 
  5 C        1.0770    -0.5160     0.9690 C.3   1 <1>   0.0000 
  6 H        0.9040     0.4920     0.5820 H     1 <1>   0.0000 
  7 H        1.9140    -0.4880     1.6750 H     1 <1>   0.0000 
  8 H        0.1980    -0.8190     1.5480 H     1 <1>   0.0000 
  9 C        2.4710    -1.0770    -1.1160 C.3   1 <1>   0.2700 
 10 H        2.7010    -1.9090    -1.7950 H     1 <1>   0.0000 
 11 H        2.0630    -0.2630    -1.7300 H     1 <1>   0.0000 
 12 N        3.7220    -0.5820    -0.4910 N.3   1 <1>  -0.8100 
 13 C        4.4120    -1.6470     0.2560 C.3   1 <1>   0.2700 
 14 H        3.7770    -2.0290     1.0610 H     1 <1>   0.0000 
 15 H        4.6540    -2.4910    -0.4030 H     1 <1>   0.0000 
 16 C        5.6890    -1.1280     0.9170 C.3   1 <1>   0.0000 
 17 H        5.4260    -0.4010     1.6980 H     1 <1>   0.0000 
 18 H        6.1990    -1.9550     1.4250 H     1 <1>   0.0000 
 19 C        6.6270    -0.4840    -0.1010 C.3   1 <1>   0.0610 
 20 H        7.0160    -1.2530    -0.7800 H     1 <1>   0.0000 
 21 C        7.8260     0.1580     0.5650 C.2   1 <1>   0.4490 
 22 H        8.4400     0.8030    -0.0880 H     1 <1>   0.0600 
 23 O        8.1780    -0.0560     1.7210 O.2   1 <1>  -0.5700 
 24 C        5.8740     0.5660    -0.9170 C.3   1 <1>   0.0000 
 25 H        5.6200     1.4260    -0.2830 H     1 <1>   0.0000 
 26 H        6.5170     0.9530    -1.7170 H     1 <1>   0.0000 
 27 C        4.6010    -0.0180    -1.5260 C.3   1 <1>   0.2700 
 28 H        4.0810     0.7910    -2.0550 H     1 <1>   0.0000 
 29 H        4.8640    -0.7780    -2.2730 H     1 <1>   0.0000 
@<TRIPOS>BOND
  1   1   2  1   
  2   2   3  1   
  3   3   4  1   
  4   3   5  1   
  5   3   9  1   
  6   5   6  1   
  7   5   7  1   
  8   5   8  1   
  9   9  10  1   
 10   9  11  1   
 11   9  12  1   
 12  12  13  1   
 13  12  27  1   
 14  13  14  1   
 15  13  15  1   
 16  13  16  1   
 17  16  17  1   
 18  16  18  1   
 19  16  19  1   
 20  19  20  1   
 21  19  21  1   
 22  19  24  1   
 23  21  22  1   
 24  21  23  2   
 25  24  25  1   
 26  24  26  1   
 27  24  27  1   
 28  27  28  1   
 29  27  29  1   
@<TRIPOS>SUBSTRUCTURE
  1 ****  13 GROUP 4 **** **** 0

# MOE 2022.02 (io_trps.svl 2020.11)

@<TRIPOS>MOLECULE
ACT157
14 14 1 0 0 
SMALL
USER_CHARGES


@<TRIPOS>ATOM
  1 H       -1.0720     3.3080     0.1350 H     1 <1>   0.1500 
  2 C       -0.6840     2.3010     0.0580 C.2   1 <1>  -0.1500 
  3 C       -1.4190     1.1400     0.0410 C.2   1 <1>   0.2200 
  4 N       -2.8260     0.9030     0.1140 N.pl3 1 <1>   0.9600 
  5 O       -3.2210    -0.2690     0.0740 O.2   1 <1>  -0.5200 
  6 O       -3.5450     1.9070     0.2120 O.2   1 <1>  -0.5200 
  7 O       -0.6210     0.0430    -0.0650 O.3   1 <1>  -0.2800 
  8 C        0.6610     0.5110    -0.1190 C.2   1 <1>  -0.0400 
  9 C        1.7300    -0.5030    -0.2360 C.3   1 <1>   0.1800 
 10 H        1.3170    -1.4940    -0.4480 H     1 <1>   0.0000 
 11 H        2.3010    -0.5620     0.6960 H     1 <1>   0.0000 
 12 H        2.4180    -0.2420    -1.0460 H     1 <1>   0.0000 
 13 C        0.6700     1.8910    -0.0450 C.2   1 <1>  -0.1500 
 14 H        1.5490     2.5220    -0.0640 H     1 <1>   0.1500 
@<TRIPOS>BOND
  1   1   2  1   
  2   2   3  2   
  3   2  13  1   
  4   3   4  1   
  5   3   7  1   
  6   4   5  2   
  7   4   6  2   
  8   7   8  1   
  9   8   9  1   
 10   8  13  2   
 11   9  10  1   
 12   9  11  1   
 13   9  12  1   
 14  13  14  1   
@<TRIPOS>SUBSTRUCTURE
  1 ****   3 GROUP 4 **** **** 0

# MOE 2022.02 (io_trps.svl 2020.11)

@<TRIPOS>MOLECULE
ACT158
19 20 1 0 0 
SMALL
USER_CHARGES


@<TRIPOS>ATOM
  1 H        6.6100    -4.0330     0.7330 H     1 <1>   0.4000 
  2 N        5.7830    -3.4320     0.6490 N.2   1 <1>  -0.4000 
  3 N        5.7230    -2.5890    -0.2670 N.2   1 <1>  -0.1250 
  4 C        4.5510    -1.8220    -0.2410 C.2   1 <1>   0.1250 
  5 C        4.5460    -0.4670    -0.4890 C.2   1 <1>  -0.0890 
  6 O        5.5390     0.3750    -0.7620 O.3   1 <1>  -0.5130 
  7 H        5.1940     1.2740    -0.8830 H     1 <1>   0.4500 
  8 N        3.2380    -0.0570    -0.4020 N.pl3 1 <1>   0.0330 
  9 H        2.9110     0.8900    -0.5200 H     1 <1>   0.2700 
 10 C        2.4080    -1.1240    -0.1300 C.ar  1 <1>  -0.1520 
 11 C        1.0160    -1.1650     0.0260 C.ar  1 <1>  -0.1500 
 12 H        0.4080    -0.2710    -0.0530 H     1 <1>   0.1500 
 13 C        0.4300    -2.4070     0.2870 C.ar  1 <1>  -0.1500 
 14 H       -0.6490    -2.4730     0.4120 H     1 <1>   0.1500 
 15 C        1.2040    -3.5610     0.3850 C.ar  1 <1>  -0.1500 
 16 H        0.7280    -4.5170     0.5870 H     1 <1>   0.1500 
 17 C        2.5930    -3.5020     0.2280 C.ar  1 <1>  -0.1500 
 18 H        3.1910    -4.4050     0.3070 H     1 <1>   0.1500 
 19 C        3.2140    -2.2620    -0.0310 C.ar  1 <1>   0.0000 
@<TRIPOS>BOND
  1   1   2  1   
  2   2   3  2   
  3   3   4  1   
  4   4   5  2   
  5   4  19  1   
  6   5   6  1   
  7   5   8  1   
  8   6   7  1   
  9   8   9  1   
 10   8  10  1   
 11  10  11  ar  
 12  10  19  ar  
 13  11  12  1   
 14  11  13  ar  
 15  13  14  1   
 16  13  15  ar  
 17  15  16  1   
 18  15  17  ar  
 19  17  18  1   
 20  17  19  ar  
@<TRIPOS>SUBSTRUCTURE
  1 ****  19 GROUP 4 **** **** 0

# MOE 2022.02 (io_trps.svl 2020.11)

@<TRIPOS>MOLECULE
ACT159
35 36 1 0 0 
SMALL
USER_CHARGES


@<TRIPOS>ATOM
  1 H        0.8640     3.3030     0.1780 H     1 <1>   0.3700 
  2 N        0.7710     2.2910     0.0960 N.am  1 <1>  -0.4940 
  3 C        1.9210     1.5610    -0.1390 C.2   1 <1>   0.5690 
  4 O        2.0360     0.3500    -0.2860 O.2   1 <1>  -0.5700 
  5 C        3.1300     2.4600    -0.2270 C.3   1 <1>   0.0610 
  6 H        4.0400     1.8530    -0.2670 H     1 <1>   0.0000 
  7 H        3.0680     3.0710    -1.1320 H     1 <1>   0.0000 
  8 H        3.1820     3.1100     0.6510 H     1 <1>   0.0000 
  9 C       -0.5260     1.8150     0.2420 C.2   1 <1>   0.1040 
 10 S       -0.8640     0.1610     0.1680 S.3   1 <1>  -0.0800 
 11 C       -2.5230     0.4060     0.4370 C.2   1 <1>  -0.1400 
 12 C       -2.8390     1.7420     0.6220 C.2   1 <1>  -0.1810 
 13 C       -1.6650     2.5900     0.4470 C.2   1 <1>  -0.0860 
 14 C       -1.5720     4.0560     0.4670 C.2   1 <1>   0.8060 
 15 O       -0.4970     4.6500     0.5340 O.2   1 <1>  -0.5700 
 16 O       -2.7720     4.6890     0.3510 O.3   1 <1>  -0.4300 
 17 C       -2.6920     6.1140     0.3350 C.3   1 <1>   0.2800 
 18 H       -2.1110     6.4560    -0.5280 H     1 <1>   0.0000 
 19 H       -2.2580     6.4850     1.2680 H     1 <1>   0.0000 
 20 H       -3.7080     6.5090     0.2450 H     1 <1>   0.0000 
 21 C       -4.2450     2.1690     0.9510 C.3   1 <1>   0.1810 
 22 H       -4.5600     1.6710     1.8780 H     1 <1>   0.0000 
 23 H       -4.2980     3.2350     1.1770 H     1 <1>   0.0000 
 24 C       -5.2350     1.8520    -0.1710 C.3   1 <1>   0.0000 
 25 H       -6.1380     2.4540    -0.0060 H     1 <1>   0.0000 
 26 H       -4.8290     2.1550    -1.1450 H     1 <1>   0.0000 
 27 C       -5.6680     0.3830    -0.2170 C.3   1 <1>   0.0000 
 28 H       -6.1070     0.0990     0.7470 H     1 <1>   0.0000 
 29 H       -6.4720     0.2930    -0.9590 H     1 <1>   0.0000 
 30 C       -4.5700    -0.6180    -0.5940 C.3   1 <1>   0.0000 
 31 H       -5.0490    -1.5980    -0.7160 H     1 <1>   0.0000 
 32 H       -4.1460    -0.3530    -1.5710 H     1 <1>   0.0000 
 33 C       -3.4630    -0.7650     0.4520 C.3   1 <1>   0.1800 
 34 H       -2.9170    -1.6940     0.2450 H     1 <1>   0.0000 
 35 H       -3.8950    -0.8770     1.4540 H     1 <1>   0.0000 
@<TRIPOS>BOND
  1   1   2  1   
  2   2   3  am  
  3   2   9  1   
  4   3   4  2   
  5   3   5  1   
  6   5   6  1   
  7   5   7  1   
  8   5   8  1   
  9   9  10  1   
 10   9  13  2   
 11  10  11  1   
 12  11  12  2   
 13  11  33  1   
 14  12  13  1   
 15  12  21  1   
 16  13  14  1   
 17  14  15  2   
 18  14  16  1   
 19  16  17  1   
 20  17  18  1   
 21  17  19  1   
 22  17  20  1   
 23  21  22  1   
 24  21  23  1   
 25  21  24  1   
 26  24  25  1   
 27  24  26  1   
 28  24  27  1   
 29  27  28  1   
 30  27  29  1   
 31  27  30  1   
 32  30  31  1   
 33  30  32  1   
 34  30  33  1   
 35  33  34  1   
 36  33  35  1   
@<TRIPOS>SUBSTRUCTURE
  1 ****  13 GROUP 4 **** **** 0

# MOE 2022.02 (io_trps.svl 2020.11)

@<TRIPOS>MOLECULE
ACT160
32 33 1 0 0 
SMALL
USER_CHARGES


@<TRIPOS>ATOM
  1 H       -2.2760     5.4900    -1.3690 H     1 <1>   0.5000 
  2 O       -1.4570     5.2270    -0.8980 O.3   1 <1>  -0.6500 
  3 C       -1.4220     3.8870    -1.0380 C.2   1 <1>   0.6340 
  4 O       -2.2820     3.2970    -1.6600 O.2   1 <1>  -0.5700 
  5 C       -0.2440     3.3110    -0.3520 C.ar  1 <1>   0.0860 
  6 C        0.9660     4.0290    -0.3730 C.ar  1 <1>  -0.1500 
  7 H        1.0110     4.9730    -0.9110 H     1 <1>   0.1500 
  8 C        2.1120     3.5070     0.2380 C.ar  1 <1>  -0.0230 
  9 N        3.3330     4.2470     0.2260 N.pl3 1 <1>   0.3260 
 10 C        3.4670     5.6080     0.4890 C.2   1 <1>  -0.3320 
 11 C        2.3570     6.5150     0.9030 C.3   1 <1>   0.1800 
 12 H        2.7550     7.3830     1.4390 H     1 <1>   0.0000 
 13 H        1.8170     6.8920     0.0290 H     1 <1>   0.0000 
 14 H        1.6550     6.0170     1.5780 H     1 <1>   0.0000 
 15 C        4.8050     5.9320     0.3930 C.2   1 <1>  -0.1500 
 16 H        5.2200     6.9190     0.5610 H     1 <1>   0.1500 
 17 C        5.5290     4.7620     0.0770 C.2   1 <1>  -0.1810 
 18 C        7.0020     4.6720    -0.1140 C.3   1 <1>   0.1810 
 19 H        7.4130     3.8260     0.4460 H     1 <1>   0.0000 
 20 H        7.2400     4.5370    -1.1740 H     1 <1>   0.0000 
 21 H        7.5020     5.5810     0.2350 H     1 <1>   0.0000 
 22 C        4.6020     3.7350    -0.0470 C.2   1 <1>  -0.3320 
 23 C        4.8650     2.3310    -0.4850 C.3   1 <1>   0.1800 
 24 H        4.0630     1.9430    -1.1200 H     1 <1>   0.0000 
 25 H        5.7860     2.2760    -1.0770 H     1 <1>   0.0000 
 26 H        4.9930     1.6750     0.3810 H     1 <1>   0.0000 
 27 C        2.0520     2.2600     0.8670 C.ar  1 <1>  -0.1500 
 28 H        2.9140     1.8480     1.3870 H     1 <1>   0.1500 
 29 C        0.8510     1.5460     0.8890 C.ar  1 <1>  -0.1500 
 30 H        0.8150     0.5850     1.3980 H     1 <1>   0.1500 
 31 C       -0.2980     2.0650     0.2830 C.ar  1 <1>   0.1770 
 32 CL      -1.7430     1.1270     0.4120 Cl    1 <1>  -0.1770 
@<TRIPOS>BOND
  1   1   2  1   
  2   2   3  1   
  3   3   4  2   
  4   3   5  1   
  5   5   6  ar  
  6   5  31  ar  
  7   6   7  1   
  8   6   8  ar  
  9   8   9  1   
 10   8  27  ar  
 11   9  10  1   
 12   9  22  1   
 13  10  11  1   
 14  10  15  2   
 15  11  12  1   
 16  11  13  1   
 17  11  14  1   
 18  15  16  1   
 19  15  17  1   
 20  17  18  1   
 21  17  22  2   
 22  18  19  1   
 23  18  20  1   
 24  18  21  1   
 25  22  23  1   
 26  23  24  1   
 27  23  25  1   
 28  23  26  1   
 29  27  28  1   
 30  27  29  ar  
 31  29  30  1   
 32  29  31  ar  
 33  31  32  1   
@<TRIPOS>SUBSTRUCTURE
  1 ****   8 GROUP 4 **** **** 0

# MOE 2022.02 (io_trps.svl 2020.11)

@<TRIPOS>MOLECULE
ACT161
19 19 1 0 0 
SMALL
USER_CHARGES


@<TRIPOS>ATOM
  1 H       -1.4980    -1.8100    -0.5440 H     1 <1>   0.4000 
  2 N       -0.5020    -1.5780    -0.4520 N.2   1 <1>  -0.8500 
  3 C        0.1470    -2.6020    -0.0030 C.2   1 <1>   0.3040 
  4 H       -0.3930    -3.5390     0.2170 H     1 <1>   0.0600 
  5 C        1.6010    -2.5780     0.2360 C.ar  1 <1>   0.0860 
  6 C        2.2270    -3.7280     0.7210 C.ar  1 <1>  -0.1500 
  7 H        1.6580    -4.6300     0.9260 H     1 <1>   0.1500 
  8 C        3.6060    -3.7200     0.9530 C.ar  1 <1>  -0.1500 
  9 H        4.0800    -4.6150     1.3480 H     1 <1>   0.1500 
 10 C        4.3620    -2.5700     0.6960 C.ar  1 <1>   0.1020 
 11 S        6.1200    -2.5250     0.9970 S.3   1 <1>  -0.3320 
 12 C        6.6580    -3.8570    -0.1100 C.3   1 <1>   0.2300 
 13 H        6.3110    -3.6710    -1.1310 H     1 <1>   0.0000 
 14 H        6.2810    -4.8240     0.2320 H     1 <1>   0.0000 
 15 H        7.7500    -3.8960    -0.1160 H     1 <1>   0.0000 
 16 C        3.7230    -1.4190     0.2250 C.ar  1 <1>  -0.1500 
 17 H        4.2900    -0.5110     0.0340 H     1 <1>   0.1500 
 18 C        2.3450    -1.4230    -0.0110 C.ar  1 <1>  -0.1500 
 19 H        1.8570    -0.5240    -0.3820 H     1 <1>   0.1500 
@<TRIPOS>BOND
  1   1   2  1   
  2   2   3  2   
  3   3   4  1   
  4   3   5  1   
  5   5   6  ar  
  6   5  18  ar  
  7   6   7  1   
  8   6   8  ar  
  9   8   9  1   
 10   8  10  ar  
 11  10  11  1   
 12  10  16  ar  
 13  11  12  1   
 14  12  13  1   
 15  12  14  1   
 16  12  15  1   
 17  16  17  1   
 18  16  18  ar  
 19  18  19  1   
@<TRIPOS>SUBSTRUCTURE
  1 ****  16 GROUP 4 **** **** 0

# MOE 2022.02 (io_trps.svl 2020.11)

@<TRIPOS>MOLECULE
ACT162
14 13 1 0 0 
SMALL
NO_CHARGES


@<TRIPOS>ATOM
  1 H       -0.2650     0.0630     0.7630 H     1 <1>   0.0000 
  2 C       -0.0430    -0.3660    -0.2200 C.3   1 <1>   0.0000 
  3 H       -0.0190     0.4470    -0.9530 H     1 <1>   0.0000 
  4 H       -0.8620    -1.0410    -0.4890 H     1 <1>   0.0000 
  5 C        1.2760    -1.1220    -0.2010 C.3   1 <1>   0.0000 
  6 H        1.2060    -1.9480     0.5160 H     1 <1>   0.0000 
  7 H        1.4510    -1.5640    -1.1890 H     1 <1>   0.0000 
  8 C        2.4400    -0.2060     0.1720 C.3   1 <1>   0.0000 
  9 H        2.5100     0.6190    -0.5460 H     1 <1>   0.0000 
 10 H        2.2630     0.2380     1.1590 H     1 <1>   0.0000 
 11 C        3.7580    -0.9630     0.1950 C.3   1 <1>   0.0000 
 12 H        3.7320    -1.7750     0.9280 H     1 <1>   0.0000 
 13 H        3.9810    -1.3930    -0.7870 H     1 <1>   0.0000 
 14 H        4.5770    -0.2880     0.4640 H     1 <1>   0.0000 
@<TRIPOS>BOND
  1   1   2  1   
  2   2   3  1   
  3   2   4  1   
  4   2   5  1   
  5   5   6  1   
  6   5   7  1   
  7   5   8  1   
  8   8   9  1   
  9   8  10  1   
 10   8  11  1   
 11  11  12  1   
 12  11  13  1   
 13  11  14  1   
@<TRIPOS>SUBSTRUCTURE
  1 ****   5 GROUP 4 **** **** 0

# MOE 2022.02 (io_trps.svl 2020.11)

@<TRIPOS>MOLECULE
ACT163
19 19 1 0 0 
SMALL
USER_CHARGES


@<TRIPOS>ATOM
  1 H        1.8320     5.8340    -0.1870 H     1 <1>   0.4000 
  2 N        2.5170     5.0790    -0.0610 N.2   1 <1>  -0.8500 
  3 C        1.9110     3.9360    -0.1110 C.2   1 <1>   0.3040 
  4 H        0.8190     3.9140    -0.2710 H     1 <1>   0.0600 
  5 C        2.6260     2.6520     0.0370 C.ar  1 <1>   0.0860 
  6 C        4.0130     2.6690     0.2420 C.ar  1 <1>  -0.1500 
  7 H        4.5420     3.6180     0.2900 H     1 <1>   0.1500 
  8 C        4.7000     1.4700     0.3840 C.ar  1 <1>   0.1110 
  9 BR       6.5700     1.4820     0.6600 Br    1 <1>  -0.1110 
 10 C        4.0180     0.2570     0.3230 C.ar  1 <1>  -0.1500 
 11 H        4.5540    -0.6830     0.4340 H     1 <1>   0.1500 
 12 C        2.6340     0.2400     0.1180 C.ar  1 <1>  -0.1500 
 13 H        2.1440    -0.7280     0.0790 H     1 <1>   0.1500 
 14 C        1.9220     1.4360    -0.0270 C.ar  1 <1>   0.0820 
 15 O        0.5690     1.5120    -0.2310 O.3   1 <1>  -0.3630 
 16 C       -0.1580     0.2920    -0.3120 C.3   1 <1>   0.2800 
 17 H       -1.2100     0.5410    -0.4820 H     1 <1>   0.0000 
 18 H       -0.0960    -0.2670     0.6280 H     1 <1>   0.0000 
 19 H        0.1810    -0.3140    -1.1590 H     1 <1>   0.0000 
@<TRIPOS>BOND
  1   1   2  1   
  2   2   3  2   
  3   3   4  1   
  4   3   5  1   
  5   5   6  ar  
  6   5  14  ar  
  7   6   7  1   
  8   6   8  ar  
  9   8   9  1   
 10   8  10  ar  
 11  10  11  1   
 12  10  12  ar  
 13  12  13  1   
 14  12  14  ar  
 15  14  15  1   
 16  15  16  1   
 17  16  17  1   
 18  16  18  1   
 19  16  19  1   
@<TRIPOS>SUBSTRUCTURE
  1 ****   5 GROUP 4 **** **** 0

# MOE 2022.02 (io_trps.svl 2020.11)

@<TRIPOS>MOLECULE
ACT164
14 14 1 0 0 
SMALL
USER_CHARGES


@<TRIPOS>ATOM
  1 H       -2.1970    -0.0730    -0.2180 H     1 <1>   0.1500 
  2 C       -1.7320     0.8960    -0.0700 C.ar  1 <1>   0.4700 
  3 N       -2.5450     1.9610    -0.0280 N.ar  1 <1>  -0.6200 
  4 C       -1.9360     3.1430     0.1660 C.ar  1 <1>   0.1600 
  5 H       -2.5980     4.0030     0.2130 H     1 <1>   0.1500 
  6 C       -0.5740     3.2850     0.3060 C.ar  1 <1>  -0.1500 
  7 H       -0.1390     4.2570     0.4800 H     1 <1>   0.1500 
  8 C        0.1630     2.1230     0.2300 C.ar  1 <1>   0.3920 
  9 O        1.5220     2.0670     0.3690 O.3   1 <1>  -0.3630 
 10 C        2.2310     3.2140    -0.0780 C.3   1 <1>   0.2800 
 11 H        3.2890     2.9430    -0.1600 H     1 <1>   0.0000 
 12 H        2.1530     4.0260     0.6520 H     1 <1>   0.0000 
 13 H        1.8930     3.5430    -1.0670 H     1 <1>   0.0000 
 14 N       -0.3990     0.9150     0.0540 N.ar  1 <1>  -0.6200 
@<TRIPOS>BOND
  1   1   2  1   
  2   2   3  ar  
  3   2  14  ar  
  4   3   4  ar  
  5   4   5  1   
  6   4   6  ar  
  7   6   7  1   
  8   6   8  ar  
  9   8   9  1   
 10   8  14  ar  
 11   9  10  1   
 12  10  11  1   
 13  10  12  1   
 14  10  13  1   
@<TRIPOS>SUBSTRUCTURE
  1 ****   8 GROUP 4 **** **** 0

# MOE 2022.02 (io_trps.svl 2020.11)

@<TRIPOS>MOLECULE
ACT165
7 6 1 0 0 
SMALL
USER_CHARGES


@<TRIPOS>ATOM
  1 H       -0.1390    -0.7450     0.9720 H     1 <1>   0.3600 
  2 N       -0.0440    -0.0500     0.2320 N.3   1 <1>  -0.9900 
  3 H       -0.2300     0.8530     0.6660 H     1 <1>   0.3600 
  4 C        1.3160    -0.0700    -0.2760 C.3   1 <1>   0.2700 
  5 H        1.5400    -1.0450    -0.7170 H     1 <1>   0.0000 
  6 H        2.0310     0.1240     0.5280 H     1 <1>   0.0000 
  7 H        1.4420     0.6940    -1.0490 H     1 <1>   0.0000 
@<TRIPOS>BOND
  1   1   2  1   
  2   2   3  1   
  3   2   4  1   
  4   4   5  1   
  5   4   6  1   
  6   4   7  1   
@<TRIPOS>SUBSTRUCTURE
  1 ****   2 GROUP 4 **** **** 0

# MOE 2022.02 (io_trps.svl 2020.11)

@<TRIPOS>MOLECULE
ACT166
15 14 1 0 0 
SMALL
USER_CHARGES


@<TRIPOS>ATOM
  1 H        2.6220    -1.6560     0.2730 H     1 <1>   0.3700 
  2 N        2.6350    -0.6460     0.2350 N.am  1 <1>  -0.7300 
  3 C        1.4590     0.0480     0.0470 C.2   1 <1>   0.5690 
  4 O        1.4000     1.2710    -0.0090 O.2   1 <1>  -0.5700 
  5 C        0.2540    -0.8630    -0.0850 C.3   1 <1>   0.0610 
  6 H        0.1850    -1.4790     0.8190 H     1 <1>   0.0000 
  7 H        0.4170    -1.5300    -0.9380 H     1 <1>   0.0000 
  8 C       -1.0390    -0.0920    -0.2770 C.3   1 <1>   0.0000 
  9 H       -1.0000     0.5210    -1.1840 H     1 <1>   0.0000 
 10 H       -1.2290     0.5750     0.5700 H     1 <1>   0.0000 
 11 H       -1.8840    -0.7810    -0.3670 H     1 <1>   0.0000 
 12 C        3.8900     0.0460     0.3810 C.3   1 <1>   0.3000 
 13 H        4.6860    -0.6920     0.5020 H     1 <1>   0.0000 
 14 H        4.0750     0.6540    -0.5090 H     1 <1>   0.0000 
 15 H        3.8440     0.6940     1.2610 H     1 <1>   0.0000 
@<TRIPOS>BOND
  1   1   2  1   
  2   2   3  am  
  3   2  12  1   
  4   3   4  2   
  5   3   5  1   
  6   5   6  1   
  7   5   7  1   
  8   5   8  1   
  9   8   9  1   
 10   8  10  1   
 11   8  11  1   
 12  12  13  1   
 13  12  14  1   
 14  12  15  1   
@<TRIPOS>SUBSTRUCTURE
  1 ****   3 GROUP 4 **** **** 0

# MOE 2022.02 (io_trps.svl 2020.11)

@<TRIPOS>MOLECULE
ACT167
22 24 1 0 0 
SMALL
USER_CHARGES


@<TRIPOS>ATOM
  1 H       -7.9860    -1.7500    -0.0030 H     1 <1>   0.1500 
  2 C       -6.9010    -1.6760    -0.0030 C.ar  1 <1>  -0.1500 
  3 C       -6.1240    -2.8510    -0.0060 C.ar  1 <1>  -0.1500 
  4 H       -6.6230    -3.8190    -0.0090 H     1 <1>   0.1500 
  5 C       -4.7230    -2.7960    -0.0060 C.ar  1 <1>  -0.1500 
  6 H       -4.1410    -3.7120    -0.0090 H     1 <1>   0.1500 
  7 C       -4.1160    -1.5520    -0.0020 C.ar  1 <1>   0.0000 
  8 C       -4.9120    -0.3940     0.0010 C.ar  1 <1>   0.0860 
  9 C       -6.2930    -0.4210     0.0010 C.ar  1 <1>  -0.1500 
 10 H       -6.8720     0.4960     0.0040 H     1 <1>   0.1500 
 11 C       -4.0050     0.7740     0.0050 C.2   1 <1>   0.3980 
 12 O       -4.3250     1.9440     0.0090 O.2   1 <1>  -0.5700 
 13 C       -2.6280     0.2330     0.0040 C.ar  1 <1>   0.0860 
 14 C       -1.4270     0.9150     0.0060 C.ar  1 <1>  -0.1500 
 15 H       -1.3980     1.9990     0.0090 H     1 <1>   0.1500 
 16 C       -0.2630     0.1470     0.0030 C.ar  1 <1>  -0.1500 
 17 H        0.7080     0.6380     0.0050 H     1 <1>   0.1500 
 18 C       -0.3310    -1.2600    -0.0010 C.ar  1 <1>  -0.1500 
 19 H        0.5920    -1.8380    -0.0030 H     1 <1>   0.1500 
 20 C       -1.5630    -1.9280    -0.0030 C.ar  1 <1>  -0.1500 
 21 H       -1.5960    -3.0130    -0.0070 H     1 <1>   0.1500 
 22 C       -2.7210    -1.1690    -0.0010 C.ar  1 <1>   0.0000 
@<TRIPOS>BOND
  1   1   2  1   
  2   2   3  ar  
  3   2   9  ar  
  4   3   4  1   
  5   3   5  ar  
  6   5   6  1   
  7   5   7  ar  
  8   7   8  ar  
  9   7  22  1   
 10   8   9  ar  
 11   8  11  1   
 12   9  10  1   
 13  11  12  2   
 14  11  13  1   
 15  13  14  ar  
 16  13  22  ar  
 17  14  15  1   
 18  14  16  ar  
 19  16  17  1   
 20  16  18  ar  
 21  18  19  1   
 22  18  20  ar  
 23  20  21  1   
 24  20  22  ar  
@<TRIPOS>SUBSTRUCTURE
  1 ****  22 GROUP 4 **** **** 0

# MOE 2022.02 (io_trps.svl 2020.11)

@<TRIPOS>MOLECULE
ACT168
12 12 1 0 0 
SMALL
USER_CHARGES


@<TRIPOS>ATOM
  1 H       -2.8870     0.1720     0.4270 H     1 <1>   0.1500 
  2 C       -2.0850     0.8670     0.2170 C.2   1 <1>   0.1390 
  3 N       -0.8250     0.4250     0.2260 N.2   1 <1>  -0.7070 
  4 N       -0.1020     1.5210    -0.0680 N.pl3 1 <1>   0.3140 
  5 C        1.3350     1.4230    -0.1490 C.3   1 <1>   0.2560 
  6 H        1.5880     0.6980    -0.9260 H     1 <1>   0.0000 
  7 H        1.7130     1.0960     0.8220 H     1 <1>   0.0000 
  8 H        1.7520     2.4010    -0.4020 H     1 <1>   0.0000 
  9 C       -0.8640     2.6360    -0.2610 C.2   1 <1>  -0.3020 
 10 H       -0.4280     3.5950    -0.5040 H     1 <1>   0.1500 
 11 C       -2.1690     2.2390    -0.0810 C.2   1 <1>  -0.1500 
 12 H       -3.0550     2.8530    -0.1540 H     1 <1>   0.1500 
@<TRIPOS>BOND
  1   1   2  1   
  2   2   3  2   
  3   2  11  1   
  4   3   4  1   
  5   4   5  1   
  6   4   9  1   
  7   5   6  1   
  8   5   7  1   
  9   5   8  1   
 10   9  10  1   
 11   9  11  2   
 12  11  12  1   
@<TRIPOS>SUBSTRUCTURE
  1 ****   4 GROUP 4 **** **** 0

# MOE 2022.02 (io_trps.svl 2020.11)

@<TRIPOS>MOLECULE
ACT169
12 12 1 0 0 
SMALL
USER_CHARGES


@<TRIPOS>ATOM
  1 H       -2.2000    -0.4620     0.0010 H     1 <1>   0.1500 
  2 C       -1.6250     0.4580     0.0000 C.2   1 <1>  -0.1500 
  3 C       -2.3390     1.7140     0.0010 C.2   1 <1>  -0.1500 
  4 H       -3.4240     1.6990     0.0020 H     1 <1>   0.1500 
  5 C       -1.6570     2.8660     0.0010 C.2   1 <1>  -0.0410 
  6 H       -2.1430     3.8370     0.0010 H     1 <1>   0.1500 
  7 N       -0.2860     2.8580     0.0000 N.am  1 <1>  -0.5390 
  8 H        0.2310     3.7280     0.0000 H     1 <1>   0.3700 
  9 C        0.4750     1.7110     0.0000 C.2   1 <1>   0.6160 
 10 O        1.7000     1.7240    -0.0010 O.2   1 <1>  -0.5700 
 11 C       -0.2840     0.4330     0.0000 C.2   1 <1>  -0.1360 
 12 H        0.2930    -0.4820    -0.0010 H     1 <1>   0.1500 
@<TRIPOS>BOND
  1   1   2  1   
  2   2   3  1   
  3   2  11  2   
  4   3   4  1   
  5   3   5  2   
  6   5   6  1   
  7   5   7  1   
  8   7   8  1   
  9   7   9  am  
 10   9  10  2   
 11   9  11  1   
 12  11  12  1   
@<TRIPOS>SUBSTRUCTURE
  1 ****   9 GROUP 4 **** **** 0

# MOE 2022.02 (io_trps.svl 2020.11)

@<TRIPOS>MOLECULE
ACT170
24 25 1 0 0 
SMALL
USER_CHARGES


@<TRIPOS>ATOM
  1 H       -4.0350     0.7050    -0.8490 H     1 <1>   0.3600 
  2 N       -3.2070     1.2190    -0.5510 N.3   1 <1>  -0.9000 
  3 C       -2.3100     1.4470    -1.6870 C.3   1 <1>   0.2700 
  4 H       -2.1980     0.5150    -2.2560 H     1 <1>   0.0000 
  5 H       -2.7800     2.1750    -2.3570 H     1 <1>   0.0000 
  6 C       -0.9170     1.9630    -1.2620 C.3   1 <1>   0.0000 
  7 H       -0.3140     2.1770    -2.1500 H     1 <1>   0.0000 
  8 C       -1.0470     3.1980    -0.3500 C.3   1 <1>   0.0000 
  9 H       -1.8870     3.8420    -0.6300 H     1 <1>   0.0000 
 10 H       -0.1390     3.8100    -0.4020 H     1 <1>   0.0000 
 11 C       -1.2060     2.6280     1.0700 C.3   1 <1>   0.0000 
 12 H       -2.1320     2.9670     1.5450 H     1 <1>   0.0000 
 13 H       -0.3760     2.9690     1.6990 H     1 <1>   0.0000 
 14 C       -1.1570     1.0990     0.8920 C.3   1 <1>   0.0000 
 15 H       -0.7510     0.6010     1.7790 H     1 <1>   0.0000 
 16 C       -2.5610     0.5380     0.5740 C.3   1 <1>   0.2700 
 17 H       -2.4870    -0.5350     0.3580 H     1 <1>   0.0000 
 18 H       -3.2030     0.6420     1.4560 H     1 <1>   0.0000 
 19 C       -0.2730     0.9100    -0.3490 C.3   1 <1>   0.0000 
 20 H       -0.3790    -0.0990    -0.7660 H     1 <1>   0.0000 
 21 C        1.2130     1.1480    -0.0890 C.3   1 <1>   0.0000 
 22 H        1.7790     1.0550    -1.0210 H     1 <1>   0.0000 
 23 H        1.5980     0.4000     0.6130 H     1 <1>   0.0000 
 24 H        1.4260     2.1350     0.3310 H     1 <1>   0.0000 
@<TRIPOS>BOND
  1   1   2  1   
  2   2   3  1   
  3   2  16  1   
  4   3   4  1   
  5   3   5  1   
  6   3   6  1   
  7   6   7  1   
  8   6   8  1   
  9   6  19  1   
 10   8   9  1   
 11   8  10  1   
 12   8  11  1   
 13  11  12  1   
 14  11  13  1   
 15  11  14  1   
 16  14  15  1   
 17  14  16  1   
 18  14  19  1   
 19  16  17  1   
 20  16  18  1   
 21  19  20  1   
 22  19  21  1   
 23  21  22  1   
 24  21  23  1   
 25  21  24  1   
@<TRIPOS>SUBSTRUCTURE
  1 ****  14 GROUP 4 **** **** 0

# MOE 2022.02 (io_trps.svl 2020.11)

@<TRIPOS>MOLECULE
ACT171
10 10 1 0 0 
SMALL
USER_CHARGES


@<TRIPOS>ATOM
  1 H       -3.8410     3.2160     0.0020 H     1 <1>   0.1500 
  2 C       -3.0880     2.4390     0.0010 C.2   1 <1>  -0.0100 
  3 O       -1.7980     2.8690     0.0000 O.3   1 <1>  -0.2800 
  4 C       -1.0160     1.7560    -0.0010 C.2   1 <1>   0.1600 
  5 C        0.3910     1.9380    -0.0020 C.1   1 <1>   0.5370 
  6 N        1.5460     2.0620    -0.0030 N.1   1 <1>  -0.5570 
  7 C       -1.7910     0.6180    -0.0010 C.2   1 <1>  -0.1500 
  8 H       -1.4340    -0.4030    -0.0010 H     1 <1>   0.1500 
  9 C       -3.1370     1.0630     0.0010 C.2   1 <1>  -0.1500 
 10 H       -4.0340     0.4580     0.0010 H     1 <1>   0.1500 
@<TRIPOS>BOND
  1   1   2  1   
  2   2   3  1   
  3   2   9  2   
  4   3   4  1   
  5   4   5  1   
  6   4   7  2   
  7   5   6  3   
  8   7   8  1   
  9   7   9  1   
 10   9  10  1   
@<TRIPOS>SUBSTRUCTURE
  1 ****   4 GROUP 4 **** **** 0

# MOE 2022.02 (io_trps.svl 2020.11)

@<TRIPOS>MOLECULE
ACT172
15 15 1 0 0 
SMALL
NO_CHARGES


@<TRIPOS>ATOM
  1 H        1.2560     1.9340    -1.2260 H     1 <1>   0.0000 
  2 C        0.8000     1.6570    -0.2680 C.3   1 <1>   0.0000 
  3 H        1.5460     1.8390     0.5130 H     1 <1>   0.0000 
  4 C        0.3700     0.1910    -0.2720 C.3   1 <1>   0.0000 
  5 H        0.8590    -0.3820    -1.0650 H     1 <1>   0.0000 
  6 H        0.6360    -0.2720     0.6860 H     1 <1>   0.0000 
  7 C       -1.1410     0.2220    -0.4300 C.3   1 <1>   0.0000 
  8 H       -1.4100     0.3270    -1.4880 H     1 <1>   0.0000 
  9 H       -1.6190    -0.6830    -0.0430 H     1 <1>   0.0000 
 10 C       -1.5430     1.4660     0.3420 C.3   1 <1>   0.0000 
 11 H       -2.5470     1.8140     0.0820 H     1 <1>   0.0000 
 12 H       -1.5180     1.2680     1.4200 H     1 <1>   0.0000 
 13 C       -0.4680     2.4760    -0.0300 C.3   1 <1>   0.0000 
 14 H       -0.3300     3.2330     0.7470 H     1 <1>   0.0000 
 15 H       -0.7470     2.9970    -0.9540 H     1 <1>   0.0000 
@<TRIPOS>BOND
  1   1   2  1   
  2   2   3  1   
  3   2   4  1   
  4   2  13  1   
  5   4   5  1   
  6   4   6  1   
  7   4   7  1   
  8   7   8  1   
  9   7   9  1   
 10   7  10  1   
 11  10  11  1   
 12  10  12  1   
 13  10  13  1   
 14  13  14  1   
 15  13  15  1   
@<TRIPOS>SUBSTRUCTURE
  1 ****   7 GROUP 4 **** **** 0

# MOE 2022.02 (io_trps.svl 2020.11)

@<TRIPOS>MOLECULE
ACT173
8 8 1 0 0 
SMALL
USER_CHARGES


@<TRIPOS>ATOM
  1 H        0.3580     0.7820     0.0520 H     1 <1>   0.3600 
  2 N        0.3400    -0.1100     0.5520 N.3   1 <1>  -0.6760 
  3 C        1.1270    -1.1170    -0.1500 C.3   1 <1>  -0.0420 
  4 H        1.6160    -1.8560     0.4730 H     1 <1>   0.1000 
  5 H        1.6860    -0.7850    -1.0150 H     1 <1>   0.1000 
  6 C       -0.3740    -1.1240    -0.2150 C.3   1 <1>  -0.0420 
  7 H       -0.8590    -0.7970    -1.1250 H     1 <1>   0.1000 
  8 H       -0.9070    -1.8680     0.3640 H     1 <1>   0.1000 
@<TRIPOS>BOND
  1   1   2  1   
  2   2   3  1   
  3   2   6  1   
  4   3   4  1   
  5   3   5  1   
  6   3   6  1   
  7   6   7  1   
  8   6   8  1   
@<TRIPOS>SUBSTRUCTURE
  1 ****   2 GROUP 4 **** **** 0

# MOE 2022.02 (io_trps.svl 2020.11)

@<TRIPOS>MOLECULE
ACT174
18 19 1 0 0 
SMALL
USER_CHARGES


@<TRIPOS>ATOM
  1 H        0.4480    -4.9880    -0.0020 H     1 <1>   0.1500 
  2 C       -0.1050    -4.0560    -0.0020 C.2   1 <1>  -0.1360 
  3 C       -1.4420    -4.0170    -0.0040 C.2   1 <1>  -0.1780 
  4 H       -2.0090    -4.9440    -0.0050 H     1 <1>   0.1500 
  5 C       -2.1850    -2.7550    -0.0030 C.ar  1 <1>   0.0280 
  6 C       -3.5850    -2.7700    -0.0060 C.ar  1 <1>  -0.1500 
  7 H       -4.1330    -3.7110    -0.0080 H     1 <1>   0.1500 
  8 C       -4.3060    -1.5730    -0.0050 C.ar  1 <1>  -0.1500 
  9 H       -5.3940    -1.5950    -0.0070 H     1 <1>   0.1500 
 10 C       -3.6370    -0.3500    -0.0020 C.ar  1 <1>  -0.1500 
 11 H       -4.2010     0.5800    -0.0020 H     1 <1>   0.1500 
 12 C       -2.2440    -0.3200     0.0010 C.ar  1 <1>  -0.1500 
 13 H       -1.7240     0.6360     0.0030 H     1 <1>   0.1500 
 14 C       -1.5230    -1.5210     0.0000 C.ar  1 <1>   0.0860 
 15 C       -0.0460    -1.4870     0.0020 C.2   1 <1>   0.4840 
 16 O        0.5680    -0.4290     0.0060 O.2   1 <1>  -0.5700 
 17 C        0.6990    -2.8170     0.0000 C.2   1 <1>   0.5560 
 18 O        1.9210    -2.8670     0.0010 O.2   1 <1>  -0.5700 
@<TRIPOS>BOND
  1   1   2  1   
  2   2   3  2   
  3   2  17  1   
  4   3   4  1   
  5   3   5  1   
  6   5   6  ar  
  7   5  14  ar  
  8   6   7  1   
  9   6   8  ar  
 10   8   9  1   
 11   8  10  ar  
 12  10  11  1   
 13  10  12  ar  
 14  12  13  1   
 15  12  14  ar  
 16  14  15  1   
 17  15  16  2   
 18  15  17  1   
 19  17  18  2   
@<TRIPOS>SUBSTRUCTURE
  1 ****  14 GROUP 4 **** **** 0

# MOE 2022.02 (io_trps.svl 2020.11)

@<TRIPOS>MOLECULE
ACT175
11 11 1 0 0 
SMALL
USER_CHARGES


@<TRIPOS>ATOM
  1 H       -2.8710     2.4510     0.0010 H     1 <1>   0.1500 
  2 C       -1.9020     1.9600     0.0000 C.ar  1 <1>   0.1600 
  3 N       -1.9420     0.6100     0.0000 N.ar  1 <1>  -0.6200 
  4 C       -0.7520    -0.0300    -0.0010 C.ar  1 <1>   0.1600 
  5 H       -0.8110    -1.1140    -0.0010 H     1 <1>   0.1500 
  6 C        0.4720     0.6190    -0.0010 C.ar  1 <1>  -0.1500 
  7 H        1.3970     0.0540    -0.0010 H     1 <1>   0.1500 
  8 C        0.4800     2.0100     0.0000 C.ar  1 <1>  -0.1500 
  9 H        1.4210     2.5530    -0.0010 H     1 <1>   0.1500 
 10 C       -0.7290     2.6980     0.0000 C.ar  1 <1>  -0.1500 
 11 H       -0.7570     3.7810     0.0000 H     1 <1>   0.1500 
@<TRIPOS>BOND
  1   1   2  1   
  2   2   3  ar  
  3   2  10  ar  
  4   3   4  ar  
  5   4   5  1   
  6   4   6  ar  
  7   6   7  1   
  8   6   8  ar  
  9   8   9  1   
 10   8  10  ar  
 11  10  11  1   
@<TRIPOS>SUBSTRUCTURE
  1 ****   2 GROUP 4 **** **** 0

# MOE 2022.02 (io_trps.svl 2020.11)

@<TRIPOS>MOLECULE
ACT176
20 20 1 0 0 
SMALL
USER_CHARGES


@<TRIPOS>ATOM
  1 H       -4.4890     2.4940    -1.4950 H     1 <1>   0.1500 
  2 C       -3.7740     2.8080    -0.7480 C.2   1 <1>  -0.0100 
  3 O       -2.6550     2.0450    -0.6540 O.3   1 <1>  -0.2800 
  4 C       -1.8760     2.5970     0.3220 C.2   1 <1>  -0.0400 
  5 C       -0.5810     1.9150     0.6150 C.3   1 <1>   0.4500 
  6 H       -0.2790     2.1210     1.6500 H     1 <1>   0.0000 
  7 H       -0.7670     0.8350     0.5550 H     1 <1>   0.0000 
  8 N        0.4950     2.2800    -0.3260 N.3   1 <1>  -0.8100 
  9 C        0.9280     3.6670    -0.1510 C.3   1 <1>   0.2700 
 10 H        1.7380     3.9070    -0.8490 H     1 <1>   0.0000 
 11 H        1.2850     3.8630     0.8670 H     1 <1>   0.0000 
 12 H        0.1190     4.3700    -0.3760 H     1 <1>   0.0000 
 13 C        1.6340     1.3770    -0.1560 C.3   1 <1>   0.2700 
 14 H        1.3380     0.3390    -0.3460 H     1 <1>   0.0000 
 15 H        2.0620     1.4350     0.8510 H     1 <1>   0.0000 
 16 H        2.4230     1.6110    -0.8800 H     1 <1>   0.0000 
 17 C       -2.5100     3.6990     0.8600 C.2   1 <1>  -0.1500 
 18 H       -2.1290     4.3270     1.6530 H     1 <1>   0.1500 
 19 C       -3.7350     3.8360     0.1630 C.2   1 <1>  -0.1500 
 20 H       -4.4950     4.5910     0.3060 H     1 <1>   0.1500 
@<TRIPOS>BOND
  1   1   2  1   
  2   2   3  1   
  3   2  19  2   
  4   3   4  1   
  5   4   5  1   
  6   4  17  2   
  7   5   6  1   
  8   5   7  1   
  9   5   8  1   
 10   8   9  1   
 11   8  13  1   
 12   9  10  1   
 13   9  11  1   
 14   9  12  1   
 15  13  14  1   
 16  13  15  1   
 17  13  16  1   
 18  17  18  1   
 19  17  19  1   
 20  19  20  1   
@<TRIPOS>SUBSTRUCTURE
  1 ****   4 GROUP 4 **** **** 0

# MOE 2022.02 (io_trps.svl 2020.11)

@<TRIPOS>MOLECULE
ACT177
14 14 1 0 0 
SMALL
USER_CHARGES


@<TRIPOS>ATOM
  1 H        2.5320     1.8090    -1.2080 H     1 <1>   0.0600 
  2 C        2.1720     0.7780    -1.0540 C.2   1 <1>   0.5100 
  3 O        2.7650    -0.1820    -1.5320 O.2   1 <1>  -0.5700 
  4 C        0.9210     0.6240    -0.2340 C.3   1 <1>  -0.0950 
  5 C        0.3260     1.8940     0.3240 C.3   1 <1>   0.0950 
  6 H        1.0510     2.3990     0.9700 H     1 <1>   0.0000 
  7 H        0.0560     2.5740    -0.4900 H     1 <1>   0.0000 
  8 H       -0.5770     1.7030     0.9160 H     1 <1>   0.0000 
  9 C        0.7790    -0.6300     0.6130 C.3   1 <1>  -0.2000 
 10 H        1.5810    -1.3610     0.5940 H     1 <1>   0.1000 
 11 H        0.2770    -0.5610     1.5720 H     1 <1>   0.1000 
 12 C       -0.0510    -0.4750    -0.6280 C.3   1 <1>  -0.2000 
 13 H       -1.1150    -0.3020    -0.5100 H     1 <1>   0.1000 
 14 H        0.1960    -1.1040    -1.4780 H     1 <1>   0.1000 
@<TRIPOS>BOND
  1   1   2  1   
  2   2   3  2   
  3   2   4  1   
  4   4   5  1   
  5   4   9  1   
  6   4  12  1   
  7   5   6  1   
  8   5   7  1   
  9   5   8  1   
 10   9  10  1   
 11   9  11  1   
 12   9  12  1   
 13  12  13  1   
 14  12  14  1   
@<TRIPOS>SUBSTRUCTURE
  1 ****   4 GROUP 4 **** **** 0

# MOE 2022.02 (io_trps.svl 2020.11)

