@<TRIPOS>MOLECULE
FOD001
35 34 1 0 0 
SMALL
USER_CHARGES


@<TRIPOS>ATOM
  1 H       13.5530     3.3350    -0.6620 H     1 <1>   0.4000 
  2 O       12.8840     3.2350     0.0360 O.3   1 <1>  -0.6800 
  3 C       11.6150     3.2280    -0.6070 C.3   1 <1>   0.2800 
  4 H       11.5940     2.3980    -1.3200 H     1 <1>   0.0000 
  5 H       11.5010     4.1690    -1.1550 H     1 <1>   0.0000 
  6 C       10.5200     3.0740     0.4340 C.3   1 <1>   0.0000 
  7 H       10.5810     3.8870     1.1700 H     1 <1>   0.0000 
  8 H       10.6770     2.1580     1.0170 H     1 <1>   0.0000 
  9 C        9.1450     3.0540    -0.2130 C.3   1 <1>   0.2800 
 10 H        9.0650     2.2110    -0.9070 H     1 <1>   0.0000 
 11 H        8.9730     3.9830    -0.7680 H     1 <1>   0.0000 
 12 O        8.1610     2.9260     0.7950 O.3   1 <1>  -0.5510 
 13 P        6.6370     2.8640     0.2620 P.3   1 <1>   1.4420 
 14 O        6.2490     4.1830    -0.3520 O.co2 1 <1>  -0.9500 
 15 O        6.4000     1.5880    -0.5020 O.co2 1 <1>  -0.9500 
 16 O        5.8570     2.7440     1.6790 O.3   1 <1>  -0.5510 
 17 C        4.4920     2.3660     1.6180 C.3   1 <1>   0.2800 
 18 H        4.1650     2.2370     2.6560 H     1 <1>   0.0000 
 19 H        4.4090     1.3820     1.1520 H     1 <1>   0.0000 
 20 C        3.6170     3.4480     0.9640 C.3   1 <1>   0.5030 
 21 H        2.8830     3.7940     1.7030 H     1 <1>   0.0000 
 22 H        4.1770     4.3310     0.6510 H     1 <1>   0.0000 
 23 N        2.7680     2.9770    -0.2490 N.4   1 <1>  -1.0120 
 24 C        2.0880     4.2080    -0.8300 C.3   1 <1>   0.5030 
 25 H        1.4650     4.6590    -0.0520 H     1 <1>   0.0000 
 26 H        2.8560     4.9120    -1.1630 H     1 <1>   0.0000 
 27 H        1.4660     3.8970    -1.6750 H     1 <1>   0.0000 
 28 C        3.6540     2.3810    -1.3500 C.3   1 <1>   0.5030 
 29 H        3.0180     2.1920    -2.2210 H     1 <1>   0.0000 
 30 H        4.0540     1.4290    -1.0040 H     1 <1>   0.0000 
 31 H        4.4240     3.1040    -1.6170 H     1 <1>   0.0000 
 32 C        1.7310     1.9610     0.1720 C.3   1 <1>   0.5030 
 33 H        1.1050     2.4060     0.9510 H     1 <1>   0.0000 
 34 H        1.1220     1.7030    -0.7000 H     1 <1>   0.0000 
 35 H        2.2350     1.0690     0.5530 H     1 <1>   0.0000 
@<TRIPOS>BOND
  1   1   2  1   
  2   2   3  1   
  3   3   4  1   
  4   3   5  1   
  5   3   6  1   
  6   6   7  1   
  7   6   8  1   
  8   6   9  1   
  9   9  10  1   
 10   9  11  1   
 11   9  12  1   
 12  12  13  1   
 13  13  14  ar  
 14  13  15  ar  
 15  13  16  1   
 16  16  17  1   
 17  17  18  1   
 18  17  19  1   
 19  17  20  1   
 20  20  21  1   
 21  20  22  1   
 22  20  23  1   
 23  23  24  1   
 24  23  28  1   
 25  23  32  1   
 26  24  25  1   
 27  24  26  1   
 28  24  27  1   
 29  28  29  1   
 30  28  30  1   
 31  28  31  1   
 32  32  33  1   
 33  32  34  1   
 34  32  35  1   
@<TRIPOS>SUBSTRUCTURE
  1 ****  13 GROUP 4 **** **** 0

# MOE 2022.02 (io_trps.svl 2020.11)

@<TRIPOS>MOLECULE
FOD002
6 5 1 0 0 
SMALL
USER_CHARGES


@<TRIPOS>ATOM
  1 H       -0.2450    -0.9910     0.2290 H     1 <1>   0.4000 
  2 O        0.0290    -0.0580     0.2500 O.3   1 <1>  -0.6800 
  3 C        1.3790    -0.0110    -0.1760 C.3   1 <1>   0.2800 
  4 H        1.4550    -0.4060    -1.1920 H     1 <1>   0.0000 
  5 H        1.9970    -0.6030     0.5030 H     1 <1>   0.0000 
  6 H        1.7190     1.0270    -0.1640 H     1 <1>   0.0000 
@<TRIPOS>BOND
  1   1   2  1   
  2   2   3  1   
  3   3   4  1   
  4   3   5  1   
  5   3   6  1   
@<TRIPOS>SUBSTRUCTURE
  1 ****   2 GROUP 4 **** **** 0

# MOE 2022.02 (io_trps.svl 2020.11)

@<TRIPOS>MOLECULE
FOD003
12 11 1 0 0 
SMALL
USER_CHARGES


@<TRIPOS>ATOM
  1 H       -1.0200     1.7470     0.9620 H     1 <1>   0.1500 
  2 C       -0.9720     0.8820     0.3040 C.2   1 <1>  -0.2880 
  3 C        0.2170     0.4390    -0.1320 C.2   1 <1>  -0.2880 
  4 H        0.2640    -0.4270    -0.7890 H     1 <1>   0.1500 
  5 C        1.5250     1.0660     0.2260 C.3   1 <1>   0.1380 
  6 H        2.1600     0.3350     0.7370 H     1 <1>   0.0000 
  7 H        2.0400     1.3960    -0.6810 H     1 <1>   0.0000 
  8 H        1.4030     1.9320     0.8840 H     1 <1>   0.0000 
  9 C       -2.2790     0.2540    -0.0570 C.3   1 <1>   0.1380 
 10 H       -2.9170     0.9870    -0.5610 H     1 <1>   0.0000 
 11 H       -2.7930    -0.0850     0.8480 H     1 <1>   0.0000 
 12 H       -2.1560    -0.6060    -0.7220 H     1 <1>   0.0000 
@<TRIPOS>BOND
  1   1   2  1   
  2   2   3  2   
  3   2   9  1   
  4   3   4  1   
  5   3   5  1   
  6   5   6  1   
  7   5   7  1   
  8   5   8  1   
  9   9  10  1   
 10   9  11  1   
 11   9  12  1   
@<TRIPOS>SUBSTRUCTURE
  1 ****   3 GROUP 4 **** **** 0

# MOE 2022.02 (io_trps.svl 2020.11)

@<TRIPOS>MOLECULE
FOD004
12 12 1 0 0 
SMALL
USER_CHARGES


@<TRIPOS>ATOM
  1 H       -2.8990     2.5400     0.0000 H     1 <1>   0.1500 
  2 C       -1.9580     1.9970     0.0000 C.ar  1 <1>  -0.1500 
  3 C       -1.9580     0.6020     0.0000 C.ar  1 <1>  -0.1500 
  4 H       -2.8990     0.0580    -0.0010 H     1 <1>   0.1500 
  5 C       -0.7500    -0.0960     0.0000 C.ar  1 <1>  -0.1500 
  6 H       -0.7500    -1.1830     0.0000 H     1 <1>   0.1500 
  7 C        0.4580     0.6020     0.0000 C.ar  1 <1>  -0.1500 
  8 H        1.3990     0.0580     0.0000 H     1 <1>   0.1500 
  9 C        0.4580     1.9960     0.0000 C.ar  1 <1>  -0.1500 
 10 H        1.3990     2.5400     0.0000 H     1 <1>   0.1500 
 11 C       -0.7500     2.6940     0.0000 C.ar  1 <1>  -0.1500 
 12 H       -0.7500     3.7810     0.0000 H     1 <1>   0.1500 
@<TRIPOS>BOND
  1   1   2  1   
  2   2   3  ar  
  3   2  11  ar  
  4   3   4  1   
  5   3   5  ar  
  6   5   6  1   
  7   5   7  ar  
  8   7   8  1   
  9   7   9  ar  
 10   9  10  1   
 11   9  11  ar  
 12  11  12  1   
@<TRIPOS>SUBSTRUCTURE
  1 ****   9 GROUP 4 **** **** 0

# MOE 2022.02 (io_trps.svl 2020.11)

@<TRIPOS>MOLECULE
FOD005
4 3 1 0 0 
SMALL
USER_CHARGES


@<TRIPOS>ATOM
  1 H       -0.5220    -0.9320     0.0000 H     1 <1>   0.0600 
  2 C        0.0660     0.0000     0.0000 C.2   1 <1>   0.4500 
  3 H       -0.5220     0.9320     0.0000 H     1 <1>   0.0600 
  4 O        1.2900     0.0000     0.0000 O.2   1 <1>  -0.5700 
@<TRIPOS>BOND
  1   1   2  1   
  2   2   3  1   
  3   2   4  2   
@<TRIPOS>SUBSTRUCTURE
  1 ****   4 GROUP 4 **** **** 0

# MOE 2022.02 (io_trps.svl 2020.11)

@<TRIPOS>MOLECULE
FOD006
12 12 1 0 0 
SMALL
USER_CHARGES


@<TRIPOS>ATOM
  1 H       -2.6890     3.2330     0.0150 H     1 <1>   0.1500 
  2 C       -1.7390     2.7180     0.0100 C.2   1 <1>  -0.1360 
  3 C       -0.5600     3.3450     0.0130 C.2   1 <1>  -0.0410 
  4 H       -0.4790     4.4280     0.0200 H     1 <1>   0.1500 
  5 N        0.6100     2.6390     0.0070 N.am  1 <1>  -0.5390 
  6 H        1.5030     3.1200     0.0080 H     1 <1>   0.3700 
  7 C        0.6700     1.2710    -0.0020 C.2   1 <1>   0.6900 
  8 O        1.7380     0.6680    -0.0070 O.2   1 <1>  -0.5700 
  9 N       -0.5350     0.6270    -0.0050 N.am  1 <1>  -0.4900 
 10 H       -0.5200    -0.3800    -0.0120 H     1 <1>   0.3700 
 11 C       -1.7570     1.2410     0.0000 C.2   1 <1>   0.6160 
 12 O       -2.8150     0.6240    -0.0030 O.2   1 <1>  -0.5700 
@<TRIPOS>BOND
  1   1   2  1   
  2   2   3  2   
  3   2  11  1   
  4   3   4  1   
  5   3   5  1   
  6   5   6  1   
  7   5   7  am  
  8   7   8  2   
  9   7   9  am  
 10   9  10  1   
 11   9  11  am  
 12  11  12  2   
@<TRIPOS>SUBSTRUCTURE
  1 ****   9 GROUP 4 **** **** 0

# MOE 2022.02 (io_trps.svl 2020.11)

@<TRIPOS>MOLECULE
FOD007
21 22 1 0 0 
SMALL
USER_CHARGES


@<TRIPOS>ATOM
  1 H        5.6370     0.7550     1.6640 H     1 <1>   0.0600 
  2 C        6.2330     0.8280     0.7370 C.2   1 <1>   0.4490 
  3 O        7.4610     0.8500     0.7890 O.2   1 <1>  -0.5700 
  4 C        5.4580     0.7790    -0.5530 C.3   1 <1>   0.2420 
  5 H        5.1350    -0.2540    -0.7150 H     1 <1>   0.0000 
  6 H        6.1220     1.0590    -1.3780 H     1 <1>   0.0000 
  7 C        4.2790     1.6920    -0.4950 C.2   1 <1>  -0.1810 
  8 C        4.2430     3.0090    -0.9110 C.2   1 <1>  -0.3020 
  9 H        5.0070     3.6390    -1.3480 H     1 <1>   0.1500 
 10 N        2.9850     3.4980    -0.6860 N.pl3 1 <1>   0.0330 
 11 H        2.6770     4.4370    -0.8980 H     1 <1>   0.2700 
 12 C        2.1900     2.5260    -0.1250 C.ar  1 <1>  -0.1520 
 13 C        0.8480     2.5780     0.2710 C.ar  1 <1>  -0.1500 
 14 H        0.2580     3.4820     0.1620 H     1 <1>   0.1500 
 15 C        0.2880     1.4200     0.8160 C.ar  1 <1>  -0.1500 
 16 H       -0.7530     1.4280     1.1330 H     1 <1>   0.1500 
 17 C        1.0410     0.2570     0.9560 C.ar  1 <1>  -0.1500 
 18 H        0.5840    -0.6340     1.3800 H     1 <1>   0.1500 
 19 C        2.3820     0.2220     0.5550 C.ar  1 <1>  -0.1500 
 20 H        2.9530    -0.6940     0.6680 H     1 <1>   0.1500 
 21 C        2.9720     1.3780     0.0030 C.ar  1 <1>   0.0000 
@<TRIPOS>BOND
  1   1   2  1   
  2   2   3  2   
  3   2   4  1   
  4   4   5  1   
  5   4   6  1   
  6   4   7  1   
  7   7   8  2   
  8   7  21  1   
  9   8   9  1   
 10   8  10  1   
 11  10  11  1   
 12  10  12  1   
 13  12  13  ar  
 14  12  21  ar  
 15  13  14  1   
 16  13  15  ar  
 17  15  16  1   
 18  15  17  ar  
 19  17  18  1   
 20  17  19  ar  
 21  19  20  1   
 22  19  21  ar  
@<TRIPOS>SUBSTRUCTURE
  1 ****  21 GROUP 4 **** **** 0

# MOE 2022.02 (io_trps.svl 2020.11)

@<TRIPOS>MOLECULE
FOD008
9 8 1 0 0 
SMALL
USER_CHARGES


@<TRIPOS>ATOM
  1 H       -0.0830    -0.8290    -0.2440 H     1 <1>   0.0000 
  2 C       -0.1180     0.1810     0.1730 C.3   1 <1>   0.2300 
  3 H       -0.0620     0.9150    -0.6350 H     1 <1>   0.0000 
  4 H       -1.0700     0.3090     0.6940 H     1 <1>   0.0000 
  5 S        1.2390     0.4270     1.3430 S.3   1 <1>  -0.4600 
  6 C        2.6230     0.1590     0.2100 C.3   1 <1>   0.2300 
  7 H        2.5820    -0.8490    -0.2100 H     1 <1>   0.0000 
  8 H        3.5630     0.2690     0.7580 H     1 <1>   0.0000 
  9 H        2.6030     0.8960    -0.5960 H     1 <1>   0.0000 
@<TRIPOS>BOND
  1   1   2  1   
  2   2   3  1   
  3   2   4  1   
  4   2   5  1   
  5   5   6  1   
  6   6   7  1   
  7   6   8  1   
  8   6   9  1   
@<TRIPOS>SUBSTRUCTURE
  1 ****   5 GROUP 4 **** **** 0

# MOE 2022.02 (io_trps.svl 2020.11)

@<TRIPOS>MOLECULE
FOD009
12 11 1 0 0 
SMALL
USER_CHARGES


@<TRIPOS>ATOM
  1 H        0.2430    -0.6530    -0.6280 H     1 <1>   0.0600 
  2 C        0.0530     0.2670    -0.0520 C.2   1 <1>   0.4960 
  3 O       -1.0810     0.6770     0.1620 O.2   1 <1>  -0.5700 
  4 C        1.2380     0.9860     0.4510 C.2   1 <1>  -0.1360 
  5 H        1.0500     1.8910     1.0170 H     1 <1>   0.1500 
  6 C        2.4630     0.5100     0.1990 C.2   1 <1>  -0.0490 
  7 H        2.6040    -0.4020    -0.3730 H     1 <1>   0.1500 
  8 S        3.8680     1.3390     0.7820 S.3   1 <1>  -0.3310 
  9 C        5.1770     0.2660     0.1470 C.3   1 <1>   0.2300 
 10 H        5.0760    -0.7430     0.5560 H     1 <1>   0.0000 
 11 H        6.1500     0.6670     0.4450 H     1 <1>   0.0000 
 12 H        5.1380     0.2190    -0.9450 H     1 <1>   0.0000 
@<TRIPOS>BOND
  1   1   2  1   
  2   2   3  2   
  3   2   4  1   
  4   4   5  1   
  5   4   6  2   
  6   6   7  1   
  7   6   8  1   
  8   8   9  1   
  9   9  10  1   
 10   9  11  1   
 11   9  12  1   
@<TRIPOS>SUBSTRUCTURE
  1 ****   6 GROUP 4 **** **** 0

# MOE 2022.02 (io_trps.svl 2020.11)

@<TRIPOS>MOLECULE
FOD010
19 18 1 0 0 
SMALL
USER_CHARGES


@<TRIPOS>ATOM
  1 H       -0.9790    -2.2620    -0.4830 H     1 <1>   0.1500 
  2 C       -0.1010    -1.6250    -0.4560 C.2   1 <1>  -0.3000 
  3 H       -0.1520    -0.6800    -0.9880 H     1 <1>   0.1500 
  4 C        1.0000    -2.0110     0.2020 C.2   1 <1>  -0.1500 
  5 H        1.0050    -2.9820     0.6950 H     1 <1>   0.1500 
  6 C        2.2330    -1.2410     0.2820 C.2   1 <1>  -0.1380 
  7 C        2.2120     0.0680     0.5840 C.2   1 <1>  -0.3000 
  8 H        3.1160     0.6610     0.6670 H     1 <1>   0.1500 
  9 H        1.2800     0.5940     0.7710 H     1 <1>   0.1500 
 10 C        3.4890    -2.0620     0.0470 C.3   1 <1>   0.1380 
 11 H        3.5150    -2.8750     0.7850 H     1 <1>   0.0000 
 12 H        3.4070    -2.5350    -0.9420 H     1 <1>   0.0000 
 13 C        4.8260    -1.3150     0.1100 C.3   1 <1>   0.0000 
 14 H        4.9600    -0.8630     1.1000 H     1 <1>   0.0000 
 15 H        4.8420    -0.5050    -0.6290 H     1 <1>   0.0000 
 16 C        5.9970    -2.2490    -0.1620 C.3   1 <1>   0.0000 
 17 H        6.0340    -3.0570     0.5750 H     1 <1>   0.0000 
 18 H        6.9410    -1.6980    -0.1110 H     1 <1>   0.0000 
 19 H        5.9180    -2.6960    -1.1590 H     1 <1>   0.0000 
@<TRIPOS>BOND
  1   1   2  1   
  2   2   3  1   
  3   2   4  2   
  4   4   5  1   
  5   4   6  1   
  6   6   7  2   
  7   6  10  1   
  8   7   8  1   
  9   7   9  1   
 10  10  11  1   
 11  10  12  1   
 12  10  13  1   
 13  13  14  1   
 14  13  15  1   
 15  13  16  1   
 16  16  17  1   
 17  16  18  1   
 18  16  19  1   
@<TRIPOS>SUBSTRUCTURE
  1 ****   6 GROUP 4 **** **** 0

# MOE 2022.02 (io_trps.svl 2020.11)

@<TRIPOS>MOLECULE
FOD011
15 15 1 0 0 
SMALL
USER_CHARGES


@<TRIPOS>ATOM
  1 H        6.2580    -0.0310     0.0000 H     1 <1>   0.0000 
  2 C        5.5640    -1.0110     0.0000 C.3   1 <1>   0.0000 
  3 H        4.8710    -1.9900     0.0000 H     1 <1>   0.0000 
  4 H        6.5440    -1.7040     0.0000 H     1 <1>   0.0000 
  5 C        4.3410    -0.1430     0.0000 C.3   1 <1>   0.0000 
  6 H        5.3800     0.4570     0.0000 H     1 <1>   0.0000 
  7 O        2.9200    -0.6240     0.0000 O.3   1 <1>   0.0000 
  8 P        2.0230     0.5790     0.0000 P.3   1 <1>   1.0000 
  9 H        1.7130     1.7380     0.0000 H     1 <1>   0.0000 
 10 O        0.7650    -0.2360     0.0000 O.2   1 <1>   0.0000 
 11 O        0.7190     1.3190     0.0000 O.3   1 <1>  -1.0000 
 12 O        2.8910     1.8030     0.0000 O.3   1 <1>   0.0000 
 13 C        4.3230     1.3560     0.0000 C.3   1 <1>   0.0000 
 14 H        5.5170     1.2450     0.0000 H     1 <1>   0.0000 
 15 H        4.5580     2.5330     0.0000 H     1 <1>   0.0000 
@<TRIPOS>BOND
  1   1   2  1   
  2   2   3  1   
  3   2   4  1   
  4   2   5  1   
  5   5   6  1   
  6   5   7  1   
  7   5  13  1   
  8   7   8  1   
  9   8   9  1   
 10   8  10  2   
 11   8  11  1   
 12   8  12  1   
 13  12  13  1   
 14  13  14  1   
 15  13  15  1   
@<TRIPOS>SUBSTRUCTURE
  1 ****   8 GROUP 4 **** **** 0

# MOE 2022.02 (io_trps.svl 2020.11)

@<TRIPOS>MOLECULE
FOD012
17 17 1 0 0 
SMALL
USER_CHARGES


@<TRIPOS>ATOM
  1 H       -2.4680    -0.0730    -1.2690 H     1 <1>   0.1500 
  2 C       -1.7680     0.7000    -0.9800 C.2   1 <1>   0.2280 
  3 N       -2.1070     1.6920    -0.1880 N.2   1 <1>  -0.5650 
  4 C       -1.0170     2.5250     0.0110 C.2   1 <1>   0.0460 
  5 C       -1.1950     3.7190     0.8790 C.3   1 <1>   0.1810 
  6 H       -0.3960     3.7790     1.6250 H     1 <1>   0.0000 
  7 H       -1.1800     4.6320     0.2770 H     1 <1>   0.0000 
  8 H       -2.1500     3.6760     1.4130 H     1 <1>   0.0000 
  9 C        0.1420     2.1380    -0.6460 C.2   1 <1>  -0.1400 
 10 C        1.4890     2.7880    -0.6640 C.3   1 <1>   0.1800 
 11 H        1.9840     2.6200    -1.6280 H     1 <1>   0.0000 
 12 H        1.3740     3.8740    -0.5640 H     1 <1>   0.0000 
 13 C        2.3800     2.2750     0.4580 C.3   1 <1>   0.0000 
 14 H        1.9290     2.4590     1.4390 H     1 <1>   0.0000 
 15 H        2.5550     1.1980     0.3660 H     1 <1>   0.0000 
 16 H        3.3500     2.7800     0.4310 H     1 <1>   0.0000 
 17 S       -0.1490     0.6960    -1.5330 S.3   1 <1>  -0.0800 
@<TRIPOS>BOND
  1   1   2  1   
  2   2   3  2   
  3   2  17  1   
  4   3   4  1   
  5   4   5  1   
  6   4   9  2   
  7   5   6  1   
  8   5   7  1   
  9   5   8  1   
 10   9  10  1   
 11   9  17  1   
 12  10  11  1   
 13  10  12  1   
 14  10  13  1   
 15  13  14  1   
 16  13  15  1   
 17  13  16  1   
@<TRIPOS>SUBSTRUCTURE
  1 ****   9 GROUP 4 **** **** 0

# MOE 2022.02 (io_trps.svl 2020.11)

@<TRIPOS>MOLECULE
FOD013
5 4 1 0 0 
SMALL
USER_CHARGES


@<TRIPOS>ATOM
  1 H       -0.3840     0.9330     0.4450 H     1 <1>   0.0000 
  2 C        0.2420     0.2260    -0.1480 C.3   1 <1>   0.5800 
  3 H        0.9200     1.0500     0.1440 H     1 <1>   0.0000 
  4 CL       1.5590    -0.8930     0.5090 Cl    1 <1>  -0.2900 
  5 CL      -1.0810    -0.9650     0.3160 Cl    1 <1>  -0.2900 
@<TRIPOS>BOND
  1   1   2  1   
  2   2   3  1   
  3   2   4  1   
  4   2   5  1   
@<TRIPOS>SUBSTRUCTURE
  1 ****   2 GROUP 4 **** **** 0

# MOE 2022.02 (io_trps.svl 2020.11)

@<TRIPOS>MOLECULE
FOD014
19 19 1 0 0 
SMALL
USER_CHARGES


@<TRIPOS>ATOM
  1 H        3.0860    -2.9500    -0.1160 H     1 <1>   0.0600 
  2 C        3.6060    -1.9890    -0.0060 C.2   1 <1>   0.4240 
  3 O        4.8300    -1.9670     0.0780 O.2   1 <1>  -0.5700 
  4 C        2.7810    -0.7570     0.0330 C.ar  1 <1>   0.0860 
  5 C        3.4770     0.4610     0.1540 C.ar  1 <1>  -0.1500 
  6 H        4.5640     0.4680     0.2170 H     1 <1>   0.1500 
  7 C        2.7890     1.6690     0.1920 C.ar  1 <1>  -0.1500 
  8 H        3.3310     2.6060     0.2850 H     1 <1>   0.1500 
  9 C        1.4040     1.6630     0.1100 C.ar  1 <1>  -0.1500 
 10 H        0.8530     2.6000     0.1380 H     1 <1>   0.1500 
 11 C        0.7110     0.4520    -0.0100 C.ar  1 <1>  -0.1500 
 12 H       -0.3720     0.5080    -0.0690 H     1 <1>   0.1500 
 13 C        1.3700    -0.7920    -0.0500 C.ar  1 <1>   0.1000 
 14 N        0.6520    -1.9740    -0.1690 N.pl3 1 <1>  -0.8690 
 15 H        1.1230    -2.8670    -0.1760 H     1 <1>   0.4000 
 16 C       -0.7910    -2.0340    -0.2850 C.3   1 <1>   0.3690 
 17 H       -1.1390    -1.5060    -1.1790 H     1 <1>   0.0000 
 18 H       -1.2780    -1.6190     0.6030 H     1 <1>   0.0000 
 19 H       -1.1050    -3.0790    -0.3760 H     1 <1>   0.0000 
@<TRIPOS>BOND
  1   1   2  1   
  2   2   3  2   
  3   2   4  1   
  4   4   5  ar  
  5   4  13  ar  
  6   5   6  1   
  7   5   7  ar  
  8   7   8  1   
  9   7   9  ar  
 10   9  10  1   
 11   9  11  ar  
 12  11  12  1   
 13  11  13  ar  
 14  13  14  1   
 15  14  15  1   
 16  14  16  1   
 17  16  17  1   
 18  16  18  1   
 19  16  19  1   
@<TRIPOS>SUBSTRUCTURE
  1 ****   4 GROUP 4 **** **** 0

# MOE 2022.02 (io_trps.svl 2020.11)

@<TRIPOS>MOLECULE
FOD015
9 8 1 0 0 
SMALL
USER_CHARGES


@<TRIPOS>ATOM
  1 H        0.1690    -1.3650    -0.0890 H     1 <1>   0.0600 
  2 C        0.1750    -0.2880    -0.3240 C.2   1 <1>   0.5700 
  3 O       -0.8190     0.3150    -0.7040 O.2   1 <1>  -0.5700 
  4 N        1.3860     0.3130    -0.1530 N.am  1 <1>  -0.7300 
  5 H        1.4140     1.3040    -0.3630 H     1 <1>   0.3700 
  6 C        2.5740    -0.3650     0.2930 C.3   1 <1>   0.3000 
  7 H        2.3840    -1.4300     0.4520 H     1 <1>   0.0000 
  8 H        3.3490    -0.2360    -0.4660 H     1 <1>   0.0000 
  9 H        2.9020     0.0970     1.2270 H     1 <1>   0.0000 
@<TRIPOS>BOND
  1   1   2  1   
  2   2   3  2   
  3   2   4  am  
  4   4   5  1   
  5   4   6  1   
  6   6   7  1   
  7   6   8  1   
  8   6   9  1   
@<TRIPOS>SUBSTRUCTURE
  1 ****   4 GROUP 4 **** **** 0

# MOE 2022.02 (io_trps.svl 2020.11)

@<TRIPOS>MOLECULE
FOD016
9 8 1 0 0 
SMALL
USER_CHARGES


@<TRIPOS>ATOM
  1 H        0.2810    -0.5100    -0.9610 H     1 <1>   0.3600 
  2 N        0.1270     0.0560    -0.1340 N.3   1 <1>  -0.9900 
  3 H       -0.7050     0.6130    -0.3050 H     1 <1>   0.3600 
  4 C        1.2490     0.9190     0.0780 C.3   1 <1>   0.5400 
  5 H        1.4040     1.5810    -0.7790 H     1 <1>   0.0000 
  6 H        1.0990     1.5330     0.9710 H     1 <1>   0.0000 
  7 N        2.3620     0.0360     0.2570 N.3   1 <1>  -0.9900 
  8 H        2.4880    -0.5300    -0.5740 H     1 <1>   0.3600 
  9 H        3.2120     0.5790     0.3780 H     1 <1>   0.3600 
@<TRIPOS>BOND
  1   1   2  1   
  2   2   3  1   
  3   2   4  1   
  4   4   5  1   
  5   4   6  1   
  6   4   7  1   
  7   7   8  1   
  8   7   9  1   
@<TRIPOS>SUBSTRUCTURE
  1 ****   4 GROUP 4 **** **** 0

# MOE 2022.02 (io_trps.svl 2020.11)

@<TRIPOS>MOLECULE
FOD017
37 38 1 0 0 
SMALL
USER_CHARGES


@<TRIPOS>ATOM
  1 H        5.5470    -1.7220     1.3420 H     1 <1>   0.1500 
  2 C        6.1450    -0.8200     1.3910 C.2   1 <1>  -0.1360 
  3 C        6.8980    -0.6300     2.4830 C.2   1 <1>  -0.2880 
  4 H        6.8870    -1.3810     3.2710 H     1 <1>   0.1500 
  5 C        7.7560     0.5670     2.7300 C.3   1 <1>   0.2760 
  6 H        8.7940     0.2440     2.8650 H     1 <1>   0.0000 
  7 H        7.4360     1.0540     3.6570 H     1 <1>   0.0000 
  8 C        7.6920     1.5540     1.6100 C.2   1 <1>  -0.2880 
  9 H        8.2910     2.4540     1.7320 H     1 <1>   0.1500 
 10 C        6.9540     1.4070     0.5010 C.2   1 <1>  -0.1360 
 11 H        6.9910     2.1980    -0.2380 H     1 <1>   0.1500 
 12 C        6.1010     0.1900     0.2790 C.2   1 <1>   0.3710 
 13 N        5.3860     0.0190    -0.8010 N.2   1 <1>  -0.0920 
 14 C        4.5400    -1.2170    -1.0460 C.3   1 <1>   0.4900 
 15 H        5.1730    -2.0870    -0.8380 H     1 <1>   0.0000 
 16 H        4.2940    -1.2620    -2.1130 H     1 <1>   0.0000 
 17 C        3.2690    -1.2380    -0.2380 C.ar  1 <1>  -0.1440 
 18 C        2.7900    -2.4400     0.3110 C.ar  1 <1>  -0.1500 
 19 H        3.3210    -3.3770     0.1530 H     1 <1>   0.1500 
 20 C        1.6210    -2.4620     1.0840 C.ar  1 <1>  -0.1500 
 21 H        1.2650    -3.3960     1.5120 H     1 <1>   0.1500 
 22 C        0.9080    -1.2860     1.3160 C.ar  1 <1>  -0.1500 
 23 H        0.0090    -1.2870     1.9270 H     1 <1>   0.1500 
 24 C        1.3640    -0.1020     0.7470 C.ar  1 <1>  -0.0090 
 25 S        0.5310     1.4780     1.0310 S.o2  1 <1>   1.4590 
 26 O       -0.4530     1.1640     2.0600 O.co2 1 <1>  -0.8170 
 27 O        0.0080     1.7640    -0.3010 O.co2 1 <1>  -0.8170 
 28 O        1.6540     2.3130     1.4550 O.co2 1 <1>  -0.8170 
 29 C        2.5200    -0.0730    -0.0360 C.ar  1 <1>  -0.1500 
 30 H        2.8030     0.8910    -0.4530 H     1 <1>   0.1500 
 31 C        5.2870     1.0440    -1.9070 C.3   1 <1>   0.3460 
 32 H        5.2890     2.0470    -1.4730 H     1 <1>   0.0000 
 33 H        4.3180     0.9230    -2.4040 H     1 <1>   0.0000 
 34 C        6.4170     0.8360    -2.8980 C.3   1 <1>   0.0000 
 35 H        6.3810    -0.1660    -3.3400 H     1 <1>   0.0000 
 36 H        7.3990     0.9580    -2.4300 H     1 <1>   0.0000 
 37 H        6.3410     1.5650    -3.7120 H     1 <1>   0.0000 
@<TRIPOS>BOND
  1   1   2  1   
  2   2   3  2   
  3   2  12  1   
  4   3   4  1   
  5   3   5  1   
  6   5   6  1   
  7   5   7  1   
  8   5   8  1   
  9   8   9  1   
 10   8  10  2   
 11  10  11  1   
 12  10  12  1   
 13  12  13  2   
 14  13  14  1   
 15  13  31  1   
 16  14  15  1   
 17  14  16  1   
 18  14  17  1   
 19  17  18  ar  
 20  17  29  ar  
 21  18  19  1   
 22  18  20  ar  
 23  20  21  1   
 24  20  22  ar  
 25  22  23  1   
 26  22  24  ar  
 27  24  25  1   
 28  24  29  ar  
 29  25  26  ar  
 30  25  27  ar  
 31  25  28  ar  
 32  29  30  1   
 33  31  32  1   
 34  31  33  1   
 35  31  34  1   
 36  34  35  1   
 37  34  36  1   
 38  34  37  1   
@<TRIPOS>SUBSTRUCTURE
  1 ****  29 GROUP 4 **** **** 0

# MOE 2022.02 (io_trps.svl 2020.11)

@<TRIPOS>MOLECULE
FOD018
16 15 1 0 0 
SMALL
USER_CHARGES


@<TRIPOS>ATOM
  1 H        0.1150    -1.3340    -0.9470 H     1 <1>   0.0000 
  2 C        0.2820    -0.9990     0.0830 C.3   1 <1>   0.2700 
  3 H       -0.5930    -0.4250     0.4070 H     1 <1>   0.0000 
  4 H        0.3310    -1.8820     0.7300 H     1 <1>   0.0000 
  5 N        1.5020    -0.1960     0.2120 N.3   1 <1>  -0.8100 
  6 C        1.3820     1.0160    -0.6020 C.3   1 <1>   0.2700 
  7 H        1.3220     0.7900    -1.6730 H     1 <1>   0.0000 
  8 H        2.2260     1.6920    -0.4340 H     1 <1>   0.0000 
  9 H        0.4850     1.5800    -0.3200 H     1 <1>   0.0000 
 10 C        2.6740    -1.0020    -0.1640 C.3   1 <1>   0.2700 
 11 H        2.6530    -1.9460     0.3950 H     1 <1>   0.0000 
 12 H        2.6520    -1.2610    -1.2300 H     1 <1>   0.0000 
 13 C        3.9980    -0.3210     0.1710 C.3   1 <1>   0.0000 
 14 H        4.8270    -1.0160     0.0000 H     1 <1>   0.0000 
 15 H        4.0300    -0.0140     1.2220 H     1 <1>   0.0000 
 16 H        4.1740     0.5590    -0.4540 H     1 <1>   0.0000 
@<TRIPOS>BOND
  1   1   2  1   
  2   2   3  1   
  3   2   4  1   
  4   2   5  1   
  5   5   6  1   
  6   5  10  1   
  7   6   7  1   
  8   6   8  1   
  9   6   9  1   
 10  10  11  1   
 11  10  12  1   
 12  10  13  1   
 13  13  14  1   
 14  13  15  1   
 15  13  16  1   
@<TRIPOS>SUBSTRUCTURE
  1 ****   5 GROUP 4 **** **** 0

# MOE 2022.02 (io_trps.svl 2020.11)

@<TRIPOS>MOLECULE
FOD019
16 16 1 0 0 
SMALL
USER_CHARGES


@<TRIPOS>ATOM
  1 H       -2.0810     1.9130     1.2690 H     1 <1>   0.0000 
  2 C       -1.9000     2.0460     0.1960 C.3   1 <1>   0.2800 
  3 H       -2.7500     2.6010    -0.2150 H     1 <1>   0.0000 
  4 O       -1.8640     0.7700    -0.4420 O.3   1 <1>  -0.5600 
  5 C       -0.8070    -0.0510     0.0570 C.3   1 <1>   0.2800 
  6 H       -0.9620    -0.2340     1.1270 H     1 <1>   0.0000 
  7 H       -0.8650    -1.0170    -0.4560 H     1 <1>   0.0000 
  8 C        0.5480     0.5940    -0.2040 C.3   1 <1>   0.0000 
  9 H        0.7080     0.6650    -1.2870 H     1 <1>   0.0000 
 10 H        1.3510    -0.0240     0.2100 H     1 <1>   0.0000 
 11 C        0.6000     1.9980     0.3880 C.3   1 <1>   0.0000 
 12 H        1.5260     2.5010     0.0870 H     1 <1>   0.0000 
 13 H        0.6100     1.9310     1.4830 H     1 <1>   0.0000 
 14 C       -0.6090     2.8140    -0.0570 C.3   1 <1>   0.0000 
 15 H       -0.6300     3.7780     0.4610 H     1 <1>   0.0000 
 16 H       -0.5170     3.0160    -1.1310 H     1 <1>   0.0000 
@<TRIPOS>BOND
  1   1   2  1   
  2   2   3  1   
  3   2   4  1   
  4   2  14  1   
  5   4   5  1   
  6   5   6  1   
  7   5   7  1   
  8   5   8  1   
  9   8   9  1   
 10   8  10  1   
 11   8  11  1   
 12  11  12  1   
 13  11  13  1   
 14  11  14  1   
 15  14  15  1   
 16  14  16  1   
@<TRIPOS>SUBSTRUCTURE
  1 ****   4 GROUP 4 **** **** 0

# MOE 2022.02 (io_trps.svl 2020.11)

@<TRIPOS>MOLECULE
FOD020
14 13 1 0 0 
SMALL
USER_CHARGES


@<TRIPOS>ATOM
  1 H       -0.9570     0.6500     0.1550 H     1 <1>   0.1800 
  2 S        0.0120    -0.0180    -0.4900 S.3   1 <1>  -0.4100 
  3 C        1.4220     0.8890     0.2420 C.3   1 <1>   0.2300 
  4 H        1.3120     0.8520     1.3320 H     1 <1>   0.0000 
  5 C        1.3500     2.3440    -0.2160 C.3   1 <1>   0.0000 
  6 H        2.1380     2.9410     0.2560 H     1 <1>   0.0000 
  7 H        1.4710     2.4360    -1.3010 H     1 <1>   0.0000 
  8 H        0.3950     2.8040     0.0630 H     1 <1>   0.0000 
  9 C        2.7180     0.1990    -0.1770 C.3   1 <1>   0.0610 
 10 H        2.9110     0.2960    -1.2520 H     1 <1>   0.0000 
 11 H        2.6910    -0.8720     0.0600 H     1 <1>   0.0000 
 12 C        3.8930     0.7870     0.5580 C.2   1 <1>   0.4490 
 13 H        4.2660     1.7530     0.1770 H     1 <1>   0.0600 
 14 O        4.3980     0.2670     1.5470 O.2   1 <1>  -0.5700 
@<TRIPOS>BOND
  1   1   2  1   
  2   2   3  1   
  3   3   4  1   
  4   3   5  1   
  5   3   9  1   
  6   5   6  1   
  7   5   7  1   
  8   5   8  1   
  9   9  10  1   
 10   9  11  1   
 11   9  12  1   
 12  12  13  1   
 13  12  14  2   
@<TRIPOS>SUBSTRUCTURE
  1 ****   9 GROUP 4 **** **** 0

# MOE 2022.02 (io_trps.svl 2020.11)

@<TRIPOS>MOLECULE
FOD021
15 14 1 0 0 
SMALL
USER_CHARGES


@<TRIPOS>ATOM
  1 H       -0.5300    -0.7810    -0.1860 H     1 <1>   0.0600 
  2 C        0.4950    -1.1920    -0.2040 C.2   1 <1>   0.4490 
  3 O        0.6660    -2.4080    -0.2610 O.2   1 <1>  -0.5700 
  4 C        1.6080    -0.1730    -0.0560 C.3   1 <1>   0.4020 
  5 H        1.5600     0.1810     0.9810 H     1 <1>   0.0000 
  6 O        2.8600    -0.8090    -0.3190 O.3   1 <1>  -0.4300 
  7 C        3.9440    -0.1950     0.2180 C.2   1 <1>   0.6590 
  8 O        3.9080     0.8700     0.8180 O.2   1 <1>  -0.5700 
  9 C        5.1850    -0.9860    -0.0530 C.3   1 <1>   0.0610 
 10 H        5.0730    -1.9990     0.3420 H     1 <1>   0.0000 
 11 H        6.0340    -0.5120     0.4490 H     1 <1>   0.0000 
 12 H        5.3800    -1.0120    -1.1280 H     1 <1>   0.0000 
 13 C        1.4020     1.0180    -0.9690 C.2   1 <1>   0.4490 
 14 H        2.2220     1.7550    -0.9890 H     1 <1>   0.0600 
 15 O        0.3750     1.2210    -1.6130 O.2   1 <1>  -0.5700 
@<TRIPOS>BOND
  1   1   2  1   
  2   2   3  2   
  3   2   4  1   
  4   4   5  1   
  5   4   6  1   
  6   4  13  1   
  7   6   7  1   
  8   7   8  2   
  9   7   9  1   
 10   9  10  1   
 11   9  11  1   
 12   9  12  1   
 13  13  14  1   
 14  13  15  2   
@<TRIPOS>SUBSTRUCTURE
  1 ****   4 GROUP 4 **** **** 0

# MOE 2022.02 (io_trps.svl 2020.11)

@<TRIPOS>MOLECULE
FOD022
22 23 1 0 0 
SMALL
USER_CHARGES


@<TRIPOS>ATOM
  1 H       -1.6560     2.9460    -0.7500 H     1 <1>   0.1500 
  2 C       -0.7320     2.6380    -0.2840 C.2   1 <1>  -0.2880 
  3 C       -0.3050     1.3770    -0.1590 C.2   1 <1>  -0.2760 
  4 C       -0.9950     0.1410    -0.6080 C.3   1 <1>   0.1380 
  5 H       -1.9620     0.3670    -1.0700 H     1 <1>   0.0000 
  6 H       -1.1760    -0.5240     0.2420 H     1 <1>   0.0000 
  7 H       -0.3900    -0.3950    -1.3460 H     1 <1>   0.0000 
  8 C        0.9920     1.3450     0.5870 C.3   1 <1>   0.4080 
  9 H        0.8430     0.8950     1.5760 H     1 <1>   0.0000 
 10 N        1.3840     2.7740     0.7650 N.3   1 <1>  -0.8100 
 11 C        0.2190     3.5870     0.3620 C.3   1 <1>   0.4080 
 12 H        0.4830     4.4090    -0.3110 H     1 <1>   0.0000 
 13 H       -0.2460     4.0210     1.2540 H     1 <1>   0.0000 
 14 C        2.5390     3.0000    -0.1160 C.3   1 <1>   0.2700 
 15 H        3.1510     3.8350     0.2350 H     1 <1>   0.0000 
 16 H        2.2420     3.1950    -1.1550 H     1 <1>   0.0000 
 17 C        3.2840     1.6830    -0.0460 C.3   1 <1>   0.0000 
 18 H        3.8110     1.5840     0.9110 H     1 <1>   0.0000 
 19 H        4.0110     1.5670    -0.8540 H     1 <1>   0.0000 
 20 C        2.1580     0.6690    -0.1350 C.3   1 <1>   0.0000 
 21 H        2.4390    -0.2790     0.3350 H     1 <1>   0.0000 
 22 H        1.9270     0.4690    -1.1890 H     1 <1>   0.0000 
@<TRIPOS>BOND
  1   1   2  1   
  2   2   3  2   
  3   2  11  1   
  4   3   4  1   
  5   3   8  1   
  6   4   5  1   
  7   4   6  1   
  8   4   7  1   
  9   8   9  1   
 10   8  10  1   
 11   8  20  1   
 12  10  11  1   
 13  10  14  1   
 14  11  12  1   
 15  11  13  1   
 16  14  15  1   
 17  14  16  1   
 18  14  17  1   
 19  17  18  1   
 20  17  19  1   
 21  17  20  1   
 22  20  21  1   
 23  20  22  1   
@<TRIPOS>SUBSTRUCTURE
  1 ****   8 GROUP 4 **** **** 0

# MOE 2022.02 (io_trps.svl 2020.11)

@<TRIPOS>MOLECULE
FOD023
24 25 1 0 0 
SMALL
USER_CHARGES


@<TRIPOS>ATOM
  1 H       -0.1040    -0.8810     1.2400 H     1 <1>   0.4500 
  2 O        0.3080    -1.4100     0.5380 O.3   1 <1>  -0.5320 
  3 C        1.6580    -1.2250     0.5560 C.ar  1 <1>   0.0820 
  4 C        2.2660    -0.3910     1.4890 C.ar  1 <1>  -0.1500 
  5 H        1.6660     0.1310     2.2270 H     1 <1>   0.1500 
  6 C        3.6550    -0.2340     1.4630 C.ar  1 <1>   0.0820 
  7 O        4.2450     0.5930     2.3760 O.3   1 <1>  -0.5320 
  8 H        3.5790     0.9820     2.9660 H     1 <1>   0.4500 
  9 C        4.4290    -0.9070     0.5070 C.ar  1 <1>   0.0860 
 10 C        5.9040    -0.7910     0.4350 C.2   1 <1>   0.4690 
 11 O        6.5920    -0.2370     1.2880 O.2   1 <1>  -0.5700 
 12 C        6.5620    -1.4310    -0.7350 C.2   1 <1>   0.0910 
 13 O        7.9180    -1.2820    -0.9670 O.3   1 <1>  -0.2600 
 14 S        8.6800     0.1500    -0.7650 S.o2  1 <1>   1.6670 
 15 O        7.7580     1.2190    -1.0890 O.2   1 <1>  -0.6500 
 16 O        9.9600     0.0560    -1.4350 O.2   1 <1>  -0.6500 
 17 O        8.9740     0.2230     0.8200 O.3   1 <1>  -0.6840 
 18 H        8.0980     0.2160     1.2880 H     1 <1>   0.5000 
 19 C        5.8140    -2.2070    -1.5240 C.2   1 <1>  -0.0730 
 20 H        6.2080    -2.7430    -2.3790 H     1 <1>   0.1500 
 21 O        4.4680    -2.4320    -1.3970 O.3   1 <1>  -0.1590 
 22 C        3.7940    -1.7370    -0.4230 C.ar  1 <1>   0.0820 
 23 C        2.4090    -1.9000    -0.3980 C.ar  1 <1>  -0.1500 
 24 H        1.9170    -2.5460    -1.1200 H     1 <1>   0.1500 
@<TRIPOS>BOND
  1   1   2  1   
  2   2   3  1   
  3   3   4  ar  
  4   3  23  ar  
  5   4   5  1   
  6   4   6  ar  
  7   6   7  1   
  8   6   9  ar  
  9   7   8  1   
 10   9  10  1   
 11   9  22  ar  
 12  10  11  2   
 13  10  12  1   
 14  12  13  1   
 15  12  19  2   
 16  13  14  1   
 17  14  15  2   
 18  14  16  2   
 19  14  17  1   
 20  17  18  1   
 21  19  20  1   
 22  19  21  1   
 23  21  22  1   
 24  22  23  ar  
 25  23  24  1   
@<TRIPOS>SUBSTRUCTURE
  1 ****  10 GROUP 4 **** **** 0

# MOE 2022.02 (io_trps.svl 2020.11)

@<TRIPOS>MOLECULE
FOD024
19 18 1 0 0 
SMALL
USER_CHARGES


@<TRIPOS>ATOM
  1 H       -0.7460    -0.9670    -0.2640 H     1 <1>   0.4000 
  2 O        0.1190    -0.5560    -0.4460 O.3   1 <1>  -0.6800 
  3 C        1.1240    -1.4200     0.1130 C.3   1 <1>   0.2800 
  4 H        0.9120    -1.4920     1.1860 H     1 <1>   0.0000 
  5 C        1.0140    -2.7870    -0.5440 C.3   1 <1>   0.0000 
  6 H       -0.0030    -3.1810    -0.4420 H     1 <1>   0.0000 
  7 H        1.2170    -2.7200    -1.6190 H     1 <1>   0.0000 
  8 H        1.7040    -3.5090    -0.1000 H     1 <1>   0.0000 
  9 C        2.4870    -0.7330    -0.1090 C.3   1 <1>   0.2800 
 10 H        2.6710    -0.6120    -1.1830 H     1 <1>   0.0000 
 11 O        2.4020     0.5890     0.4410 O.3   1 <1>  -0.6800 
 12 H        1.5410     0.9300     0.1240 H     1 <1>   0.4000 
 13 C        3.6550    -1.4710     0.5490 C.3   1 <1>   0.0000 
 14 H        3.7360    -2.4880     0.1530 H     1 <1>   0.0000 
 15 H        3.4830    -1.5480     1.6290 H     1 <1>   0.0000 
 16 C        4.9850    -0.7610     0.3290 C.3   1 <1>   0.0000 
 17 H        5.7980    -1.3360     0.7840 H     1 <1>   0.0000 
 18 H        5.2000    -0.6550    -0.7390 H     1 <1>   0.0000 
 19 H        4.9860     0.2360     0.7820 H     1 <1>   0.0000 
@<TRIPOS>BOND
  1   1   2  1   
  2   2   3  1   
  3   3   4  1   
  4   3   5  1   
  5   3   9  1   
  6   5   6  1   
  7   5   7  1   
  8   5   8  1   
  9   9  10  1   
 10   9  11  1   
 11   9  13  1   
 12  11  12  1   
 13  13  14  1   
 14  13  15  1   
 15  13  16  1   
 16  16  17  1   
 17  16  18  1   
 18  16  19  1   
@<TRIPOS>SUBSTRUCTURE
  1 ****   9 GROUP 4 **** **** 0

# MOE 2022.02 (io_trps.svl 2020.11)

@<TRIPOS>MOLECULE
FOD025
9 8 1 0 0 
SMALL
USER_CHARGES


@<TRIPOS>ATOM
  1 H       -0.0020    -1.9680     0.3000 H     1 <1>   0.0000 
  2 C       -0.1600    -0.9660    -0.1130 C.3   1 <1>   0.0000 
  3 H       -0.4570    -1.0800    -1.1620 H     1 <1>   0.0000 
  4 H       -0.9920    -0.5030     0.4270 H     1 <1>   0.0000 
  5 C        1.0920    -0.1160     0.0140 C.3   1 <1>   0.2000 
  6 H        1.3470     0.0010     1.0730 H     1 <1>   0.0000 
  7 H        0.8930     0.8860    -0.3820 H     1 <1>   0.0000 
  8 C        2.2210    -0.7190    -0.7050 C.1   1 <1>   0.3570 
  9 N        3.1140    -1.1930    -1.2730 N.1   1 <1>  -0.5570 
@<TRIPOS>BOND
  1   1   2  1   
  2   2   3  1   
  3   2   4  1   
  4   2   5  1   
  5   5   6  1   
  6   5   7  1   
  7   5   8  1   
  8   8   9  3   
@<TRIPOS>SUBSTRUCTURE
  1 ****   8 GROUP 4 **** **** 0

# MOE 2022.02 (io_trps.svl 2020.11)

@<TRIPOS>MOLECULE
FOD026
8 7 1 0 0 
SMALL
USER_CHARGES


@<TRIPOS>ATOM
  1 H        3.3430     0.9360     0.0440 H     1 <1>   0.3700 
  2 N        2.8400     0.0660     0.0070 N.am  1 <1>  -0.8000 
  3 H        3.3550    -0.8030    -0.0150 H     1 <1>   0.3700 
  4 C        1.4960    -0.0070    -0.0170 C.2   1 <1>   0.6900 
  5 O        0.8870    -1.0650    -0.0630 O.2   1 <1>  -0.5700 
  6 N        0.8830     1.1910     0.0140 N.am  1 <1>  -0.8000 
  7 H        1.3820     2.0640     0.0510 H     1 <1>   0.3700 
  8 H       -0.1280     1.2000    -0.0010 H     1 <1>   0.3700 
@<TRIPOS>BOND
  1   1   2  1   
  2   2   3  1   
  3   2   4  am  
  4   4   5  2   
  5   4   6  am  
  6   6   7  1   
  7   6   8  1   
@<TRIPOS>SUBSTRUCTURE
  1 ****   4 GROUP 4 **** **** 0

# MOE 2022.02 (io_trps.svl 2020.11)

@<TRIPOS>MOLECULE
FOD027
24 24 1 0 0 
SMALL
USER_CHARGES


@<TRIPOS>ATOM
  1 H        2.0810     2.1770     1.6350 H     1 <1>   0.3600 
  2 N        2.7960     1.6430     1.1410 N.3   1 <1>  -0.9300 
  3 H        3.6450     1.7360     1.6980 H     1 <1>   0.3600 
  4 C        2.4130     0.2490     0.8720 C.3   1 <1>   0.2100 
  5 H        2.2250    -0.3090     1.7990 H     1 <1>   0.0000 
  6 C        1.1900     0.1920    -0.1540 C.3   1 <1>   0.2170 
  7 C        0.8740     1.3910    -1.0450 C.3   1 <1>   0.0000 
  8 H        1.7610     1.7970    -1.5400 H     1 <1>   0.0000 
  9 H        0.1550     1.1240    -1.8280 H     1 <1>   0.0000 
 10 H        0.4290     2.2020    -0.4570 H     1 <1>   0.0000 
 11 C       -0.0780    -0.3780     0.4800 C.3   1 <1>   0.0000 
 12 H       -0.5280     0.3560     1.1590 H     1 <1>   0.0000 
 13 H       -0.8260    -0.6310    -0.2790 H     1 <1>   0.0000 
 14 H        0.1220    -1.2830     1.0650 H     1 <1>   0.0000 
 15 S        2.0980    -1.1050    -1.0910 S.3   1 <1>  -0.4340 
 16 C        3.4880    -0.4530    -0.0780 C.3   1 <1>   0.2170 
 17 C        4.4350     0.3910    -0.9280 C.3   1 <1>   0.0000 
 18 H        5.2000     0.8620    -0.3000 H     1 <1>   0.0000 
 19 H        4.9570    -0.2250    -1.6690 H     1 <1>   0.0000 
 20 H        3.9220     1.1910    -1.4690 H     1 <1>   0.0000 
 21 C        4.2330    -1.5890     0.6220 C.3   1 <1>   0.0000 
 22 H        3.5560    -2.2490     1.1760 H     1 <1>   0.0000 
 23 H        4.7880    -2.2050    -0.0940 H     1 <1>   0.0000 
 24 H        4.9540    -1.1850     1.3420 H     1 <1>   0.0000 
@<TRIPOS>BOND
  1   1   2  1   
  2   2   3  1   
  3   2   4  1   
  4   4   5  1   
  5   4   6  1   
  6   4  16  1   
  7   6   7  1   
  8   6  11  1   
  9   6  15  1   
 10   7   8  1   
 11   7   9  1   
 12   7  10  1   
 13  11  12  1   
 14  11  13  1   
 15  11  14  1   
 16  15  16  1   
 17  16  17  1   
 18  16  21  1   
 19  17  18  1   
 20  17  19  1   
 21  17  20  1   
 22  21  22  1   
 23  21  23  1   
 24  21  24  1   
@<TRIPOS>SUBSTRUCTURE
  1 ****   4 GROUP 4 **** **** 0

# MOE 2022.02 (io_trps.svl 2020.11)

@<TRIPOS>MOLECULE
FOD028
13 12 1 0 0 
SMALL
USER_CHARGES


@<TRIPOS>ATOM
  1 H        4.8490     2.4460     0.0670 H     1 <1>   0.0600 
  2 C        4.8850     1.4230     0.4760 C.2   1 <1>   0.4490 
  3 O        5.8930     1.0050     1.0400 O.2   1 <1>  -0.5700 
  4 C        3.6680     0.5710     0.2070 C.3   1 <1>   0.3410 
  5 H        3.7190    -0.3320     0.8240 H     1 <1>   0.0000 
  6 H        3.6620     0.3080    -0.8550 H     1 <1>   0.0000 
  7 O        2.5060     1.3290     0.5280 O.3   1 <1>  -0.5600 
  8 C        1.3230     0.5540     0.3690 C.3   1 <1>   0.3410 
  9 H        1.2550     0.1600    -0.6500 H     1 <1>   0.0000 
 10 H        1.3110    -0.2650     1.0960 H     1 <1>   0.0000 
 11 C        0.1300     1.4390     0.6360 C.2   1 <1>   0.4490 
 12 H        0.1840     2.0470     1.5550 H     1 <1>   0.0600 
 13 O       -0.8800     1.4450    -0.0630 O.2   1 <1>  -0.5700 
@<TRIPOS>BOND
  1   1   2  1   
  2   2   3  2   
  3   2   4  1   
  4   4   5  1   
  5   4   6  1   
  6   4   7  1   
  7   7   8  1   
  8   8   9  1   
  9   8  10  1   
 10   8  11  1   
 11  11  12  1   
 12  11  13  2   
@<TRIPOS>SUBSTRUCTURE
  1 ****   7 GROUP 4 **** **** 0

# MOE 2022.02 (io_trps.svl 2020.11)

@<TRIPOS>MOLECULE
FOD029
18 17 1 0 0 
SMALL
USER_CHARGES


@<TRIPOS>ATOM
  1 H        0.6510     0.9060    -1.9630 H     1 <1>   0.1800 
  2 S        1.1790    -0.3130    -2.1490 S.3   1 <1>  -0.4100 
  3 C        1.2430    -0.7940    -0.3750 C.3   1 <1>   0.2300 
  4 C       -0.1990    -0.7870     0.1570 C.3   1 <1>   0.0000 
  5 H       -0.6500     0.2110     0.0960 H     1 <1>   0.0000 
  6 H       -0.2240    -1.0900     1.2100 H     1 <1>   0.0000 
  7 H       -0.8410    -1.4840    -0.3950 H     1 <1>   0.0000 
  8 C        1.8080    -2.2170    -0.2900 C.3   1 <1>   0.0000 
  9 H        1.1510    -2.9430    -0.7840 H     1 <1>   0.0000 
 10 H        2.7980    -2.3020    -0.7520 H     1 <1>   0.0000 
 11 H        1.9060    -2.5320     0.7560 H     1 <1>   0.0000 
 12 C        2.0890     0.2170     0.4360 C.3   1 <1>   0.0000 
 13 H        1.6520     1.2210     0.3490 H     1 <1>   0.0000 
 14 H        2.0240    -0.0450     1.5010 H     1 <1>   0.0000 
 15 C        3.5690     0.3030     0.0750 C.3   1 <1>   0.0000 
 16 H        4.0800    -0.6490     0.2430 H     1 <1>   0.0000 
 17 H        3.7210     0.6030    -0.9650 H     1 <1>   0.0000 
 18 H        4.0590     1.0520     0.7070 H     1 <1>   0.0000 
@<TRIPOS>BOND
  1   1   2  1   
  2   2   3  1   
  3   3   4  1   
  4   3   8  1   
  5   3  12  1   
  6   4   5  1   
  7   4   6  1   
  8   4   7  1   
  9   8   9  1   
 10   8  10  1   
 11   8  11  1   
 12  12  13  1   
 13  12  14  1   
 14  12  15  1   
 15  15  16  1   
 16  15  17  1   
 17  15  18  1   
@<TRIPOS>SUBSTRUCTURE
  1 ****   3 GROUP 4 **** **** 0

# MOE 2022.02 (io_trps.svl 2020.11)

@<TRIPOS>MOLECULE
FOD030
15 14 1 0 0 
SMALL
USER_CHARGES


@<TRIPOS>ATOM
  1 H        1.2900    -3.2080     0.9680 H     1 <1>   0.4000 
  2 O        0.5420    -2.5890     1.0620 O.3   1 <1>  -0.6800 
  3 C        0.5670    -1.7300    -0.0740 C.3   1 <1>   0.3410 
  4 H        0.3820    -2.3430    -0.9650 H     1 <1>   0.0000 
  5 C        1.9080    -1.0000    -0.2800 C.2   1 <1>   0.6500 
  6 O        2.0220     0.1770    -0.5980 O.2   1 <1>  -0.5700 
  7 S        3.3210    -2.0550    -0.1040 S.3   1 <1>  -0.3710 
  8 C        4.6250    -0.8090    -0.2070 C.3   1 <1>   0.2300 
  9 H        5.5960    -1.2950    -0.0860 H     1 <1>   0.0000 
 10 H        4.6070    -0.3110    -1.1810 H     1 <1>   0.0000 
 11 H        4.5090    -0.0650     0.5860 H     1 <1>   0.0000 
 12 C       -0.5730    -0.7340     0.0830 C.3   1 <1>   0.0000 
 13 H       -0.6560    -0.0770    -0.7880 H     1 <1>   0.0000 
 14 H       -0.4230    -0.1090     0.9710 H     1 <1>   0.0000 
 15 H       -1.5260    -1.2570     0.2190 H     1 <1>   0.0000 
@<TRIPOS>BOND
  1   1   2  1   
  2   2   3  1   
  3   3   4  1   
  4   3   5  1   
  5   3  12  1   
  6   5   6  2   
  7   5   7  1   
  8   7   8  1   
  9   8   9  1   
 10   8  10  1   
 11   8  11  1   
 12  12  13  1   
 13  12  14  1   
 14  12  15  1   
@<TRIPOS>SUBSTRUCTURE
  1 ****   5 GROUP 4 **** **** 0

# MOE 2022.02 (io_trps.svl 2020.11)

@<TRIPOS>MOLECULE
FOD031
15 15 1 0 0 
SMALL
USER_CHARGES


@<TRIPOS>ATOM
  1 H       -3.7460     1.7220     0.5230 H     1 <1>   0.1500 
  2 C       -2.6670     1.6990     0.3770 C.ar  1 <1>  -0.1500 
  3 C       -1.9950     0.4860     0.3010 C.ar  1 <1>  -0.1500 
  4 H       -2.5420    -0.4500     0.3870 H     1 <1>   0.1500 
  5 C       -0.6170     0.4810     0.1150 C.ar  1 <1>   0.2110 
  6 H       -0.0550    -0.4470     0.0550 H     1 <1>   0.1500 
  7 N        0.0660     1.6420     0.0050 N.ar  1 <1>  -0.2100 
  8 C        1.5260     1.6240    -0.1830 C.3   1 <1>   0.4880 
  9 H        1.8450     0.6300    -0.5060 H     1 <1>   0.0000 
 10 H        1.9840     1.8820     0.7750 H     1 <1>   0.0000 
 11 H        1.7850     2.3570    -0.9520 H     1 <1>   0.0000 
 12 C       -0.5740     2.8320     0.0830 C.ar  1 <1>   0.2110 
 13 H        0.0270     3.7330    -0.0030 H     1 <1>   0.1500 
 14 C       -1.9500     2.8840     0.2690 C.ar  1 <1>  -0.1500 
 15 H       -2.4610     3.8420     0.3290 H     1 <1>   0.1500 
@<TRIPOS>BOND
  1   1   2  1   
  2   2   3  ar  
  3   2  14  ar  
  4   3   4  1   
  5   3   5  ar  
  6   5   6  1   
  7   5   7  ar  
  8   7   8  1   
  9   7  12  ar  
 10   8   9  1   
 11   8  10  1   
 12   8  11  1   
 13  12  13  1   
 14  12  14  ar  
 15  14  15  1   
@<TRIPOS>SUBSTRUCTURE
  1 ****   7 GROUP 4 **** **** 0

# MOE 2022.02 (io_trps.svl 2020.11)

@<TRIPOS>MOLECULE
FOD032
3 2 1 0 0 
SMALL
USER_CHARGES


@<TRIPOS>ATOM
  1 H       -0.6700    -0.9000    -0.0290 H     1 <1>   0.1770 
  2 C        0.2890    -0.4360     0.0010 C.1   1 <1>   0.3800 
  3 N        1.3320     0.0690     0.0340 N.1   1 <1>  -0.5570 
@<TRIPOS>BOND
  1   1   2  1   
  2   2   3  3   
@<TRIPOS>SUBSTRUCTURE
  1 ****   2 GROUP 4 **** **** 0

# MOE 2022.02 (io_trps.svl 2020.11)

@<TRIPOS>MOLECULE
FOD033
16 15 1 0 0 
SMALL
USER_CHARGES


@<TRIPOS>ATOM
  1 H        4.7930    -0.5880    -0.5510 H     1 <1>   0.0000 
  2 C        4.5410    -1.5850    -0.1810 C.3   1 <1>   0.2800 
  3 H        5.4050    -1.9810     0.3610 H     1 <1>   0.0000 
  4 H        4.3240    -2.2540    -1.0190 H     1 <1>   0.0000 
  5 O        3.4400    -1.5360     0.7120 O.3   1 <1>  -0.5600 
  6 C        2.2570    -1.0070     0.1130 C.3   1 <1>   0.5600 
  7 H        2.2250    -1.2820    -0.9490 H     1 <1>   0.0000 
  8 O        1.1320    -1.5670     0.7910 O.3   1 <1>  -0.5600 
  9 C       -0.0230    -1.6550    -0.0290 C.3   1 <1>   0.2800 
 10 H       -0.3260    -0.6680    -0.3910 H     1 <1>   0.0000 
 11 H       -0.8390    -2.0680     0.5710 H     1 <1>   0.0000 
 12 H        0.1580    -2.3260    -0.8740 H     1 <1>   0.0000 
 13 C        2.2420     0.5080     0.2840 C.3   1 <1>   0.0000 
 14 H        2.2780     0.7720     1.3470 H     1 <1>   0.0000 
 15 H        3.1070     0.9750    -0.1970 H     1 <1>   0.0000 
 16 H        1.3310     0.9500    -0.1300 H     1 <1>   0.0000 
@<TRIPOS>BOND
  1   1   2  1   
  2   2   3  1   
  3   2   4  1   
  4   2   5  1   
  5   5   6  1   
  6   6   7  1   
  7   6   8  1   
  8   6  13  1   
  9   8   9  1   
 10   9  10  1   
 11   9  11  1   
 12   9  12  1   
 13  13  14  1   
 14  13  15  1   
 15  13  16  1   
@<TRIPOS>SUBSTRUCTURE
  1 ****   6 GROUP 4 **** **** 0

# MOE 2022.02 (io_trps.svl 2020.11)

@<TRIPOS>MOLECULE
FOD034
6 5 1 0 0 
SMALL
USER_CHARGES


@<TRIPOS>ATOM
  1 H       -0.4780    -0.9300     0.0000 H     1 <1>   0.1500 
  2 C        0.0820     0.0000     0.0000 C.2   1 <1>  -0.3000 
  3 H       -0.4780     0.9300     0.0000 H     1 <1>   0.1500 
  4 C        1.4180     0.0000     0.0000 C.2   1 <1>  -0.3000 
  5 H        1.9780    -0.9300     0.0000 H     1 <1>   0.1500 
  6 H        1.9780     0.9300     0.0000 H     1 <1>   0.1500 
@<TRIPOS>BOND
  1   1   2  1   
  2   2   3  1   
  3   2   4  2   
  4   4   5  1   
  5   4   6  1   
@<TRIPOS>SUBSTRUCTURE
  1 ****   4 GROUP 4 **** **** 0

# MOE 2022.02 (io_trps.svl 2020.11)

@<TRIPOS>MOLECULE
FOD035
19 20 1 0 0 
SMALL
USER_CHARGES


@<TRIPOS>ATOM
  1 H        7.0300     1.2660     0.5350 H     1 <1>   0.0600 
  2 C        6.2130     0.7650    -0.0090 C.2   1 <1>   0.5100 
  3 O        6.2890    -0.4030    -0.3710 O.2   1 <1>  -0.5700 
  4 C        5.0150     1.5680    -0.2980 C.3   1 <1>   0.0480 
  5 H        4.8240     1.7650    -1.3450 H     1 <1>   0.1000 
  6 O        4.7690     2.6270     0.6350 O.3   1 <1>  -0.2960 
  7 C        3.8410     1.5240     0.6530 C.3   1 <1>   0.0800 
  8 H        3.9140     0.8500     1.5020 H     1 <1>   0.1000 
  9 C        2.4510     1.7640     0.1260 C.ar  1 <1>  -0.0320 
 10 C        1.8010     0.7980    -0.6620 C.ar  1 <1>  -0.1500 
 11 H        2.3110    -0.1340    -0.9010 H     1 <1>   0.1500 
 12 C        0.5080     1.0060    -1.1480 C.ar  1 <1>  -0.1500 
 13 H        0.0280     0.2440    -1.7560 H     1 <1>   0.1500 
 14 C       -0.1650     2.1880    -0.8520 C.ar  1 <1>  -0.1500 
 15 H       -1.1710     2.3520    -1.2290 H     1 <1>   0.1500 
 16 C        0.4540     3.1580    -0.0700 C.ar  1 <1>  -0.1500 
 17 H       -0.0670     4.0830     0.1660 H     1 <1>   0.1500 
 18 C        1.7480     2.9450     0.4140 C.ar  1 <1>  -0.1500 
 19 H        2.2180     3.7130     1.0250 H     1 <1>   0.1500 
@<TRIPOS>BOND
  1   1   2  1   
  2   2   3  2   
  3   2   4  1   
  4   4   5  1   
  5   4   6  1   
  6   4   7  1   
  7   6   7  1   
  8   7   8  1   
  9   7   9  1   
 10   9  10  ar  
 11   9  18  ar  
 12  10  11  1   
 13  10  12  ar  
 14  12  13  1   
 15  12  14  ar  
 16  14  15  1   
 17  14  16  ar  
 18  16  17  1   
 19  16  18  ar  
 20  18  19  1   
@<TRIPOS>SUBSTRUCTURE
  1 ****   9 GROUP 4 **** **** 0

# MOE 2022.02 (io_trps.svl 2020.11)

@<TRIPOS>MOLECULE
FOD036
9 8 1 0 0 
SMALL
USER_CHARGES


@<TRIPOS>ATOM
  1 H       -0.9440     0.9850     0.8850 H     1 <1>   0.1800 
  2 S       -0.0830     0.0000     0.5920 S.3   1 <1>  -0.4100 
  3 C        1.3040     1.0720     0.1270 C.3   1 <1>   0.2300 
  4 H        1.5560     1.7120     0.9780 H     1 <1>   0.0000 
  5 H        0.9900     1.7150    -0.7010 H     1 <1>   0.0000 
  6 C        2.5070     0.2420    -0.2800 C.3   1 <1>   0.0000 
  7 H        2.2840    -0.3930    -1.1440 H     1 <1>   0.0000 
  8 H        2.8500    -0.3970     0.5420 H     1 <1>   0.0000 
  9 H        3.3370     0.8990    -0.5570 H     1 <1>   0.0000 
@<TRIPOS>BOND
  1   1   2  1   
  2   2   3  1   
  3   3   4  1   
  4   3   5  1   
  5   3   6  1   
  6   6   7  1   
  7   6   8  1   
  8   6   9  1   
@<TRIPOS>SUBSTRUCTURE
  1 ****   3 GROUP 4 **** **** 0

# MOE 2022.02 (io_trps.svl 2020.11)

@<TRIPOS>MOLECULE
FOD037
17 17 1 0 0 
SMALL
USER_CHARGES


@<TRIPOS>ATOM
  1 H        6.8370    -1.3270     0.0310 H     1 <1>   0.0600 
  2 C        6.8490    -0.2390    -0.1550 C.2   1 <1>   0.4490 
  3 O        7.9060     0.3390    -0.3970 O.2   1 <1>  -0.5700 
  4 C        5.5370     0.4780     0.0080 C.3   1 <1>   0.2910 
  5 H        5.2650     0.4590     1.0670 H     1 <1>   0.0000 
  6 H        5.6510     1.5130    -0.3270 H     1 <1>   0.0000 
  7 S        4.2710    -0.3790    -0.9790 S.3   1 <1>  -0.3320 
  8 C        2.8290     0.5560    -0.5020 C.ar  1 <1>   0.1020 
  9 C        1.7490    -0.1090     0.0730 C.ar  1 <1>  -0.1500 
 10 H        1.7630    -1.1800     0.2440 H     1 <1>   0.1500 
 11 C        0.6370     0.6340     0.4300 C.ar  1 <1>   0.1600 
 12 H       -0.2290     0.1620     0.8860 H     1 <1>   0.1500 
 13 N        0.5350     1.9670     0.2460 N.ar  1 <1>  -0.6200 
 14 C        1.5870     2.5830    -0.3320 C.ar  1 <1>   0.1600 
 15 H        1.4710     3.6530    -0.4820 H     1 <1>   0.1500 
 16 C        2.7430     1.9290    -0.7220 C.ar  1 <1>  -0.1500 
 17 H        3.5430     2.4860    -1.1960 H     1 <1>   0.1500 
@<TRIPOS>BOND
  1   1   2  1   
  2   2   3  2   
  3   2   4  1   
  4   4   5  1   
  5   4   6  1   
  6   4   7  1   
  7   7   8  1   
  8   8   9  ar  
  9   8  16  ar  
 10   9  10  1   
 11   9  11  ar  
 12  11  12  1   
 13  11  13  ar  
 14  13  14  ar  
 15  14  15  1   
 16  14  16  ar  
 17  16  17  1   
@<TRIPOS>SUBSTRUCTURE
  1 ****   8 GROUP 4 **** **** 0

# MOE 2022.02 (io_trps.svl 2020.11)

@<TRIPOS>MOLECULE
FOD038
19 19 1 0 0 
SMALL
USER_CHARGES


@<TRIPOS>ATOM
  1 H        0.6160    -1.7410    -0.8740 H     1 <1>   0.0000 
  2 C        0.6970    -0.8810    -0.2010 C.3   1 <1>   0.0000 
  3 H       -0.3090    -0.5150     0.0250 H     1 <1>   0.0000 
  4 H        1.1540    -1.2510     0.7240 H     1 <1>   0.0000 
  5 C        1.5480     0.2030    -0.8320 C.3   1 <1>   0.2800 
  6 H        1.1150     0.4990    -1.7960 H     1 <1>   0.0000 
  7 O        2.8660    -0.3040    -1.0950 O.3   1 <1>  -0.5600 
  8 C        3.8230     0.7390    -0.8300 C.3   1 <1>   0.2800 
  9 H        4.4240     0.8990    -1.7310 H     1 <1>   0.0000 
 10 C        4.7280     0.2770     0.3030 C.3   1 <1>   0.0000 
 11 H        5.2490    -0.6440     0.0200 H     1 <1>   0.0000 
 12 H        4.1520     0.0440     1.2050 H     1 <1>   0.0000 
 13 H        5.4750     1.0380     0.5490 H     1 <1>   0.0000 
 14 C        3.0260     1.9880    -0.4790 C.3   1 <1>   0.0000 
 15 H        3.5330     2.6560     0.2220 H     1 <1>   0.0000 
 16 H        2.8190     2.5580    -1.3940 H     1 <1>   0.0000 
 17 C        1.7340     1.4200     0.0550 C.3   1 <1>   0.0000 
 18 H        0.8960     2.1200    -0.0030 H     1 <1>   0.0000 
 19 H        1.8640     1.1280     1.1040 H     1 <1>   0.0000 
@<TRIPOS>BOND
  1   1   2  1   
  2   2   3  1   
  3   2   4  1   
  4   2   5  1   
  5   5   6  1   
  6   5   7  1   
  7   5  17  1   
  8   7   8  1   
  9   8   9  1   
 10   8  10  1   
 11   8  14  1   
 12  10  11  1   
 13  10  12  1   
 14  10  13  1   
 15  14  15  1   
 16  14  16  1   
 17  14  17  1   
 18  17  18  1   
 19  17  19  1   
@<TRIPOS>SUBSTRUCTURE
  1 ****   7 GROUP 4 **** **** 0

# MOE 2022.02 (io_trps.svl 2020.11)

@<TRIPOS>MOLECULE
FOD039
21 20 1 0 0 
SMALL
USER_CHARGES


@<TRIPOS>ATOM
  1 H        0.5310    -0.5970     1.2610 H     1 <1>   0.4000 
  2 O       -0.0300    -1.3600     1.0440 O.3   1 <1>  -0.6800 
  3 C        0.4390    -1.8650    -0.1990 C.3   1 <1>   0.6180 
  4 H        0.1530    -1.1490    -0.9770 H     1 <1>   0.0000 
  5 C        1.8970    -2.0100    -0.1520 C.1   1 <1>  -0.2000 
  6 C        3.0930    -2.1180    -0.1100 C.1   1 <1>   0.0000 
  7 C        4.5180    -2.2340    -0.0520 C.1   1 <1>   0.0000 
  8 C        5.7150    -2.3220     0.0000 C.1   1 <1>  -0.2000 
  9 C        7.1760    -2.4250     0.0690 C.3   1 <1>   0.4800 
 10 H        7.5090    -2.3510     1.1100 H     1 <1>   0.0000 
 11 O        7.7620    -1.3400    -0.6430 O.3   1 <1>  -0.6800 
 12 H        7.3760    -1.3440    -1.5360 H     1 <1>   0.4000 
 13 C        7.6720    -3.7320    -0.5280 C.3   1 <1>   0.0000 
 14 H        7.3900    -3.8190    -1.5840 H     1 <1>   0.0000 
 15 H        7.2660    -4.5970     0.0070 H     1 <1>   0.0000 
 16 H        8.7660    -3.7790    -0.4900 H     1 <1>   0.0000 
 17 C       -0.1970    -3.1930    -0.5040 C.2   1 <1>  -0.2880 
 18 H        0.0680    -3.6270    -1.4660 H     1 <1>   0.1500 
 19 C       -1.0500    -3.8740     0.2760 C.2   1 <1>  -0.3000 
 20 H       -1.3570    -3.4920     1.2460 H     1 <1>   0.1500 
 21 H       -1.4570    -4.8290    -0.0390 H     1 <1>   0.1500 
@<TRIPOS>BOND
  1   1   2  1   
  2   2   3  1   
  3   3   4  1   
  4   3   5  1   
  5   3  17  1   
  6   5   6  3   
  7   6   7  1   
  8   7   8  3   
  9   8   9  1   
 10   9  10  1   
 11   9  11  1   
 12   9  13  1   
 13  11  12  1   
 14  13  14  1   
 15  13  15  1   
 16  13  16  1   
 17  17  18  1   
 18  17  19  2   
 19  19  20  1   
 20  19  21  1   
@<TRIPOS>SUBSTRUCTURE
  1 ****   6 GROUP 4 **** **** 0

# MOE 2022.02 (io_trps.svl 2020.11)

@<TRIPOS>MOLECULE
FOD040
16 15 1 0 0 
SMALL
USER_CHARGES


@<TRIPOS>ATOM
  1 H       10.0230    -0.9580    -0.6780 H     1 <1>   0.1770 
  2 C        8.9940    -0.7430    -0.5090 C.1   1 <1>  -0.1770 
  3 C        7.8340    -0.5020    -0.3200 C.1   1 <1>   0.0000 
  4 C        6.4490    -0.2170    -0.0950 C.1   1 <1>   0.0000 
  5 C        5.2870     0.0200     0.0950 C.1   1 <1>  -0.2000 
  6 C        3.8690     0.3180     0.3260 C.3   1 <1>   0.3380 
  7 H        3.7520     0.8920     1.2520 H     1 <1>   0.0000 
  8 H        3.4820     0.9410    -0.4890 H     1 <1>   0.0000 
  9 C        3.0920    -0.9600     0.4460 C.2   1 <1>  -0.2880 
 10 H        3.3640    -1.6120     1.2750 H     1 <1>   0.1500 
 11 C        2.1000    -1.3250    -0.3830 C.2   1 <1>  -0.2880 
 12 H        1.8220    -0.6790    -1.2130 H     1 <1>   0.1500 
 13 C        1.3290    -2.5980    -0.2520 C.3   1 <1>   0.1380 
 14 H        0.2650    -2.3780    -0.1210 H     1 <1>   0.0000 
 15 H        1.4470    -3.2000    -1.1590 H     1 <1>   0.0000 
 16 H        1.6610    -3.1980     0.6010 H     1 <1>   0.0000 
@<TRIPOS>BOND
  1   1   2  1   
  2   2   3  3   
  3   3   4  1   
  4   4   5  3   
  5   5   6  1   
  6   6   7  1   
  7   6   8  1   
  8   6   9  1   
  9   9  10  1   
 10   9  11  2   
 11  11  12  1   
 12  11  13  1   
 13  13  14  1   
 14  13  15  1   
 15  13  16  1   
@<TRIPOS>SUBSTRUCTURE
  1 ****   5 GROUP 4 **** **** 0

# MOE 2022.02 (io_trps.svl 2020.11)

@<TRIPOS>MOLECULE
FOD041
7 6 1 0 0 
SMALL
USER_CHARGES


@<TRIPOS>ATOM
  1 H       -0.5280    -0.7590    -0.0010 H     1 <1>   0.4000 
  2 O        0.2310    -0.1460     0.0010 O.3   1 <1>  -0.3370 
  3 N        1.3190    -1.0270    -0.0010 N.2   1 <1>  -0.5130 
  4 C        2.4060    -0.3460     0.0010 C.2   1 <1>   0.5400 
  5 H        2.4840     0.7520     0.0030 H     1 <1>   0.0600 
  6 O        3.5970    -0.9630     0.0000 O.3   1 <1>  -0.6000 
  7 H        4.3280    -0.3270     0.0010 H     1 <1>   0.4500 
@<TRIPOS>BOND
  1   1   2  1   
  2   2   3  1   
  3   3   4  2   
  4   4   5  1   
  5   4   6  1   
  6   6   7  1   
@<TRIPOS>SUBSTRUCTURE
  1 ****   4 GROUP 4 **** **** 0

# MOE 2022.02 (io_trps.svl 2020.11)

@<TRIPOS>MOLECULE
FOD042
25 25 1 0 0 
SMALL
USER_CHARGES


@<TRIPOS>ATOM
  1 H        7.1530     1.0900     0.1390 H     1 <1>   0.0600 
  2 C        6.5830     0.1560     0.2900 C.2   1 <1>   0.4490 
  3 O        7.0960    -0.7810     0.8940 O.2   1 <1>  -0.5700 
  4 C        5.1970     0.1390    -0.3410 C.3   1 <1>   0.1990 
  5 H        5.3360     0.3460    -1.4100 H     1 <1>   0.0000 
  6 C        4.3830     1.2600     0.2560 C.2   1 <1>  -0.2880 
  7 H        4.8640     2.2240     0.4090 H     1 <1>   0.1500 
  8 C        3.0960     1.1200     0.6120 C.2   1 <1>  -0.2880 
  9 H        2.5790     1.9570     1.0790 H     1 <1>   0.1500 
 10 C        2.3020    -0.1540     0.4160 C.3   1 <1>   0.2760 
 11 H        2.2200    -0.5970     1.4190 H     1 <1>   0.0000 
 12 C        0.8900     0.0910    -0.1030 C.2   1 <1>  -0.2760 
 13 C        0.5700     1.0460    -0.9960 C.2   1 <1>  -0.3000 
 14 H        1.3200     1.7090    -1.4180 H     1 <1>   0.1500 
 15 H       -0.4510     1.1860    -1.3390 H     1 <1>   0.1500 
 16 C       -0.1690    -0.8250     0.4510 C.3   1 <1>   0.1380 
 17 H       -1.1590    -0.6160     0.0300 H     1 <1>   0.0000 
 18 H        0.0730    -1.8680     0.2250 H     1 <1>   0.0000 
 19 H       -0.2400    -0.7100     1.5370 H     1 <1>   0.0000 
 20 C        3.0320    -1.1590    -0.4970 C.3   1 <1>   0.0000 
 21 H        2.9140    -0.8800    -1.5530 H     1 <1>   0.0000 
 22 H        2.5880    -2.1560    -0.3840 H     1 <1>   0.0000 
 23 C        4.5230    -1.2290    -0.1700 C.3   1 <1>   0.0000 
 24 H        4.6440    -1.5980     0.8570 H     1 <1>   0.0000 
 25 H        5.0120    -1.9640    -0.8210 H     1 <1>   0.0000 
@<TRIPOS>BOND
  1   1   2  1   
  2   2   3  2   
  3   2   4  1   
  4   4   5  1   
  5   4   6  1   
  6   4  23  1   
  7   6   7  1   
  8   6   8  2   
  9   8   9  1   
 10   8  10  1   
 11  10  11  1   
 12  10  12  1   
 13  10  20  1   
 14  12  13  2   
 15  12  16  1   
 16  13  14  1   
 17  13  15  1   
 18  16  17  1   
 19  16  18  1   
 20  16  19  1   
 21  20  21  1   
 22  20  22  1   
 23  20  23  1   
 24  23  24  1   
 25  23  25  1   
@<TRIPOS>SUBSTRUCTURE
  1 ****  10 GROUP 4 **** **** 0

# MOE 2022.02 (io_trps.svl 2020.11)

@<TRIPOS>MOLECULE
FOD043
13 13 1 0 0 
SMALL
USER_CHARGES


@<TRIPOS>ATOM
  1 H        0.9230    -2.7470    -0.0020 H     1 <1>   0.4500 
  2 O        0.7290    -1.7960    -0.0020 O.3   1 <1>  -0.5320 
  3 C        1.9040    -1.0960    -0.0010 C.ar  1 <1>   0.0820 
  4 C        3.1160    -1.7900     0.0000 C.ar  1 <1>  -0.1500 
  5 H        3.1420    -2.8760     0.0010 H     1 <1>   0.1500 
  6 C        4.3200    -1.0850     0.0010 C.ar  1 <1>  -0.1500 
  7 H        5.2650    -1.6230     0.0020 H     1 <1>   0.1500 
  8 C        4.3150     0.3100     0.0000 C.ar  1 <1>  -0.1500 
  9 H        5.2550     0.8570     0.0010 H     1 <1>   0.1500 
 10 C        3.1040     1.0040    -0.0010 C.ar  1 <1>  -0.1500 
 11 H        3.1180     2.0910    -0.0020 H     1 <1>   0.1500 
 12 C        1.8950     0.3020    -0.0020 C.ar  1 <1>   0.0810 
 13 I        0.1150     1.3980    -0.0040 I     1 <1>  -0.0810 
@<TRIPOS>BOND
  1   1   2  1   
  2   2   3  1   
  3   3   4  ar  
  4   3  12  ar  
  5   4   5  1   
  6   4   6  ar  
  7   6   7  1   
  8   6   8  ar  
  9   8   9  1   
 10   8  10  ar  
 11  10  11  1   
 12  10  12  ar  
 13  12  13  1   
@<TRIPOS>SUBSTRUCTURE
  1 ****  12 GROUP 4 **** **** 0

# MOE 2022.02 (io_trps.svl 2020.11)

@<TRIPOS>MOLECULE
FOD044
11 10 1 0 0 
SMALL
USER_CHARGES


@<TRIPOS>ATOM
  1 H        4.1610     0.4200     0.5390 H     1 <1>   0.4000 
  2 N        3.1410     0.5220     0.5300 N.2   1 <1>  -0.8500 
  3 C        2.5710    -0.5950     0.2000 C.2   1 <1>   0.3890 
  4 C        1.0580    -0.6840     0.1110 C.2   1 <1>   0.7200 
  5 O        0.3360    -1.0120     1.0290 O.2   1 <1>  -0.5700 
  6 O        0.6220    -0.3940    -1.1180 O.3   1 <1>  -0.6500 
  7 H       -0.3540    -0.4330    -1.0450 H     1 <1>   0.5000 
  8 C        3.3240    -1.8470    -0.1270 C.3   1 <1>   0.0610 
  9 H        2.9820    -2.6590     0.5210 H     1 <1>   0.0000 
 10 H        3.1420    -2.1180    -1.1710 H     1 <1>   0.0000 
 11 H        4.3980    -1.7050     0.0200 H     1 <1>   0.0000 
@<TRIPOS>BOND
  1   1   2  1   
  2   2   3  2   
  3   3   4  1   
  4   3   8  1   
  5   4   5  2   
  6   4   6  1   
  7   6   7  1   
  8   8   9  1   
  9   8  10  1   
 10   8  11  1   
@<TRIPOS>SUBSTRUCTURE
  1 ****   3 GROUP 4 **** **** 0

# MOE 2022.02 (io_trps.svl 2020.11)

@<TRIPOS>MOLECULE
FOD045
34 34 1 0 0 
SMALL
USER_CHARGES


@<TRIPOS>ATOM
  1 H        2.8550     7.6280     0.5150 H     1 <1>   0.4000 
  2 O        2.6370     6.7170     0.7760 O.3   1 <1>  -0.6800 
  3 C        3.4800     5.8620     0.0130 C.3   1 <1>   0.2800 
  4 H        4.5250     6.1200     0.2150 H     1 <1>   0.0000 
  5 H        3.2960     6.0390    -1.0530 H     1 <1>   0.0000 
  6 C        3.2200     4.4000     0.3600 C.3   1 <1>   0.2800 
  7 H        2.1750     4.1610     0.1420 H     1 <1>   0.0000 
  8 H        3.3930     4.2420     1.4300 H     1 <1>   0.0000 
  9 O        4.0880     3.5850    -0.4270 O.3   1 <1>  -0.5600 
 10 C        4.1980     2.2200     0.0410 C.3   1 <1>   0.2800 
 11 H        4.3090     2.2380     1.1330 H     1 <1>   0.0000 
 12 C        5.4880     1.6610    -0.5860 C.3   1 <1>   0.2800 
 13 H        5.5880     0.5870    -0.4040 H     1 <1>   0.0000 
 14 H        5.4950     1.8520    -1.6650 H     1 <1>   0.0000 
 15 O        6.6230     2.3070     0.0110 O.3   1 <1>  -0.5600 
 16 C        7.8440     1.9100    -0.6060 C.3   1 <1>   0.2800 
 17 H        7.9690     0.8250    -0.5160 H     1 <1>   0.0000 
 18 H        7.8290     2.1830    -1.6670 H     1 <1>   0.0000 
 19 C        8.9870     2.6200     0.0920 C.3   1 <1>   0.0000 
 20 H        9.9470     2.3430    -0.3510 H     1 <1>   0.0000 
 21 H        9.0030     2.3700     1.1580 H     1 <1>   0.0000 
 22 H        8.8660     3.7060     0.0220 H     1 <1>   0.0000 
 23 C        2.9530     1.4050    -0.3680 C.3   1 <1>   0.2800 
 24 H        2.6670     1.6630    -1.3960 H     1 <1>   0.0000 
 25 O        1.8200     1.7560     0.4630 O.3   1 <1>  -0.5600 
 26 C        1.0450     0.5780     0.7220 C.3   1 <1>   0.2800 
 27 H        1.1270     0.3540     1.7900 H     1 <1>   0.0000 
 28 H       -0.0060     0.7690     0.4860 H     1 <1>   0.0000 
 29 C        1.6360    -0.5310    -0.1180 C.3   1 <1>   0.0000 
 30 H        1.5000    -1.5210     0.3240 H     1 <1>   0.0000 
 31 H        1.1750    -0.5340    -1.1130 H     1 <1>   0.0000 
 32 C        3.0790    -0.1050    -0.2230 C.3   1 <1>   0.0000 
 33 H        3.5970    -0.5750    -1.0640 H     1 <1>   0.0000 
 34 H        3.6050    -0.3660     0.7030 H     1 <1>   0.0000 
@<TRIPOS>BOND
  1   1   2  1   
  2   2   3  1   
  3   3   4  1   
  4   3   5  1   
  5   3   6  1   
  6   6   7  1   
  7   6   8  1   
  8   6   9  1   
  9   9  10  1   
 10  10  11  1   
 11  10  12  1   
 12  10  23  1   
 13  12  13  1   
 14  12  14  1   
 15  12  15  1   
 16  15  16  1   
 17  16  17  1   
 18  16  18  1   
 19  16  19  1   
 20  19  20  1   
 21  19  21  1   
 22  19  22  1   
 23  23  24  1   
 24  23  25  1   
 25  23  32  1   
 26  25  26  1   
 27  26  27  1   
 28  26  28  1   
 29  26  29  1   
 30  29  30  1   
 31  29  31  1   
 32  29  32  1   
 33  32  33  1   
 34  32  34  1   
@<TRIPOS>SUBSTRUCTURE
  1 ****  10 GROUP 4 **** **** 0

# MOE 2022.02 (io_trps.svl 2020.11)

@<TRIPOS>MOLECULE
FOD046
39 39 1 0 0 
SMALL
USER_CHARGES


@<TRIPOS>ATOM
  1 H       11.2750     1.7330    -1.2260 H     1 <1>   0.5000 
  2 O       10.9770     2.4750    -0.6600 O.3   1 <1>  -0.6500 
  3 C        9.6300     2.4210    -0.7230 C.2   1 <1>   0.6590 
  4 O        9.0820     1.5840    -1.4250 O.2   1 <1>  -0.5700 
  5 C        8.9520     3.5030     0.1250 C.3   1 <1>   0.3070 
  6 H        9.6910     3.8410     0.8630 H     1 <1>   0.0000 
  7 N        7.8370     2.9160     0.9200 N.2   1 <1>  -0.6960 
  8 C        6.8650     2.3800     0.2670 C.2   1 <1>   0.3290 
  9 H        6.8040     2.3720    -0.8360 H     1 <1>   0.0600 
 10 C        5.7040     1.7600     0.9990 C.3   1 <1>   0.2040 
 11 H        5.9770     1.5710     2.0440 H     1 <1>   0.0000 
 12 H        5.4910     0.7900     0.5370 H     1 <1>   0.0000 
 13 C        4.4930     2.6540     0.9460 C.ar  1 <1>  -0.1440 
 14 C        4.4360     3.8080     1.7340 C.ar  1 <1>  -0.1500 
 15 H        5.2540     4.0550     2.4060 H     1 <1>   0.1500 
 16 C        3.3270     4.6330     1.6210 C.ar  1 <1>   0.3960 
 17 C        3.2610     5.8710     2.4340 C.2   1 <1>   0.4240 
 18 H        4.1230     6.0520     3.0970 H     1 <1>   0.0600 
 19 O        2.3260     6.6610     2.3950 O.2   1 <1>  -0.5700 
 20 N        2.2840     4.3860     0.7930 N.ar  1 <1>  -0.6200 
 21 C        2.3470     3.2600     0.0300 C.ar  1 <1>   0.1660 
 22 C        1.1810     2.9950    -0.9090 C.3   1 <1>   0.7040 
 23 H        0.6780     2.0630    -0.6330 H     1 <1>   0.0000 
 24 O        0.2400     4.0530    -0.8760 O.3   1 <1>  -0.6800 
 25 H        0.6620     4.7390    -0.3150 H     1 <1>   0.4000 
 26 O        1.6490     2.9060    -2.2400 O.3   1 <1>  -0.6800 
 27 H        0.8340     3.0120    -2.7600 H     1 <1>   0.4000 
 28 C        3.4300     2.3810     0.0810 C.ar  1 <1>  -0.1500 
 29 H        3.4430     1.5070    -0.5660 H     1 <1>   0.1500 
 30 C        8.4940     4.7180    -0.7150 C.3   1 <1>   0.0000 
 31 H        7.7630     4.3940    -1.4660 H     1 <1>   0.0000 
 32 C        9.6670     5.3580    -1.4680 C.3   1 <1>   0.0000 
 33 H       10.0970     4.6650    -2.1980 H     1 <1>   0.0000 
 34 H       10.4600     5.6650    -0.7790 H     1 <1>   0.0000 
 35 H        9.3370     6.2450    -2.0200 H     1 <1>   0.0000 
 36 C        7.8280     5.7850     0.1620 C.3   1 <1>   0.0000 
 37 H        7.5310     6.6520    -0.4380 H     1 <1>   0.0000 
 38 H        8.5090     6.1340     0.9460 H     1 <1>   0.0000 
 39 H        6.9250     5.4010     0.6440 H     1 <1>   0.0000 
@<TRIPOS>BOND
  1   1   2  1   
  2   2   3  1   
  3   3   4  2   
  4   3   5  1   
  5   5   6  1   
  6   5   7  1   
  7   5  30  1   
  8   7   8  2   
  9   8   9  1   
 10   8  10  1   
 11  10  11  1   
 12  10  12  1   
 13  10  13  1   
 14  13  14  ar  
 15  13  28  ar  
 16  14  15  1   
 17  14  16  ar  
 18  16  17  1   
 19  16  20  ar  
 20  17  18  1   
 21  17  19  2   
 22  20  21  ar  
 23  21  22  1   
 24  21  28  ar  
 25  22  23  1   
 26  22  24  1   
 27  22  26  1   
 28  24  25  1   
 29  26  27  1   
 30  28  29  1   
 31  30  31  1   
 32  30  32  1   
 33  30  36  1   
 34  32  33  1   
 35  32  34  1   
 36  32  35  1   
 37  36  37  1   
 38  36  38  1   
 39  36  39  1   
@<TRIPOS>SUBSTRUCTURE
  1 ****  13 GROUP 4 **** **** 0

# MOE 2022.02 (io_trps.svl 2020.11)

@<TRIPOS>MOLECULE
FOD047
25 25 1 0 0 
SMALL
USER_CHARGES


@<TRIPOS>ATOM
  1 H        3.9210    -1.1110    -1.4930 H     1 <1>   0.4000 
  2 O        3.2520    -0.4060    -1.4810 O.3   1 <1>  -0.6800 
  3 C        3.2200     0.1310    -0.1620 C.3   1 <1>   0.4240 
  4 H        3.1830    -0.7170     0.5330 H     1 <1>   0.0000 
  5 C        1.9590     0.9510    -0.0090 C.ar  1 <1>  -0.1440 
  6 C        1.4880     1.7850    -1.0310 C.ar  1 <1>  -0.1500 
  7 H        2.0230     1.8360    -1.9790 H     1 <1>   0.1500 
  8 C        0.3350     2.5440    -0.8530 C.ar  1 <1>  -0.1500 
  9 H       -0.0300     3.1850    -1.6500 H     1 <1>   0.1500 
 10 C       -0.3490     2.4710     0.3580 C.ar  1 <1>  -0.0600 
 11 H       -1.2480     3.0170     0.5970 H     1 <1>   0.1500 
 12 N        0.0940     1.6610     1.3870 N.ar  1 <1>   0.5710 
 13 O       -0.5340     1.6070     2.4890 O.2   1 <1>  -0.7500 
 14 C        1.2430     0.9110     1.1930 C.ar  1 <1>  -0.0600 
 15 H        1.5050     0.3170     2.0560 H     1 <1>   0.1500 
 16 C        4.4690     0.9840     0.1000 C.3   1 <1>   0.0000 
 17 H        4.5500     1.7700    -0.6630 H     1 <1>   0.0000 
 18 H        4.3760     1.4860     1.0710 H     1 <1>   0.0000 
 19 C        5.7570     0.1570     0.0820 C.3   1 <1>   0.0000 
 20 H        5.6810    -0.6660     0.8030 H     1 <1>   0.0000 
 21 H        5.9080    -0.2890    -0.9070 H     1 <1>   0.0000 
 22 C        6.9690     1.0090     0.4260 C.3   1 <1>   0.0000 
 23 H        7.8780     0.4000     0.4040 H     1 <1>   0.0000 
 24 H        7.0900     1.8270    -0.2910 H     1 <1>   0.0000 
 25 H        6.8740     1.4400     1.4270 H     1 <1>   0.0000 
@<TRIPOS>BOND
  1   1   2  1   
  2   2   3  1   
  3   3   4  1   
  4   3   5  1   
  5   3  16  1   
  6   5   6  ar  
  7   5  14  ar  
  8   6   7  1   
  9   6   8  ar  
 10   8   9  1   
 11   8  10  ar  
 12  10  11  1   
 13  10  12  ar  
 14  12  13  2   
 15  12  14  ar  
 16  14  15  1   
 17  16  17  1   
 18  16  18  1   
 19  16  19  1   
 20  19  20  1   
 21  19  21  1   
 22  19  22  1   
 23  22  23  1   
 24  22  24  1   
 25  22  25  1   
@<TRIPOS>SUBSTRUCTURE
  1 ****   5 GROUP 4 **** **** 0

# MOE 2022.02 (io_trps.svl 2020.11)

@<TRIPOS>MOLECULE
FOD048
25 24 1 0 0 
SMALL
USER_CHARGES


@<TRIPOS>ATOM
  1 H        0.0100     1.5540     0.8580 H     1 <1>   0.0600 
  2 C        1.0710     1.5730     0.5540 C.2   1 <1>   0.4490 
  3 O        1.7140     2.6170     0.6460 O.2   1 <1>  -0.5700 
  4 C        1.6070     0.3020    -0.0970 C.3   1 <1>   0.3610 
  5 H        1.4810     0.4280    -1.1790 H     1 <1>   0.0000 
  6 N        0.7800    -0.8350     0.3170 N.am  1 <1>  -0.7300 
  7 H        1.1530    -1.4860     0.9990 H     1 <1>   0.3700 
  8 C       -0.4670    -1.0540    -0.2160 C.2   1 <1>   0.5690 
  9 O       -1.0080    -0.2730    -0.9900 O.2   1 <1>  -0.5700 
 10 C       -1.1340    -2.3090     0.2770 C.3   1 <1>   0.0610 
 11 H       -1.8720    -2.6430    -0.4580 H     1 <1>   0.0000 
 12 H       -1.6320    -2.1020     1.2280 H     1 <1>   0.0000 
 13 H       -0.3990    -3.1070     0.4200 H     1 <1>   0.0000 
 14 C        3.0840     0.1230     0.2680 C.3   1 <1>   0.2300 
 15 H        3.6670     0.9900    -0.0610 H     1 <1>   0.0000 
 16 H        3.1900     0.0390     1.3560 H     1 <1>   0.0000 
 17 S        3.7890    -1.3760    -0.5060 S.3   1 <1>  -0.3710 
 18 C        5.4070    -1.2850     0.1470 C.2   1 <1>   0.7710 
 19 O        5.7330    -0.5190     1.0370 O.2   1 <1>  -0.5700 
 20 N        6.2030    -2.1960    -0.4780 N.am  1 <1>  -0.7300 
 21 H        5.7720    -2.7690    -1.1910 H     1 <1>   0.3700 
 22 C        7.5950    -2.3640    -0.1580 C.3   1 <1>   0.3000 
 23 H        7.6900    -3.2130     0.5240 H     1 <1>   0.0000 
 24 H        8.1380    -2.5770    -1.0820 H     1 <1>   0.0000 
 25 H        8.0020    -1.4670     0.3140 H     1 <1>   0.0000 
@<TRIPOS>BOND
  1   1   2  1   
  2   2   3  2   
  3   2   4  1   
  4   4   5  1   
  5   4   6  1   
  6   4  14  1   
  7   6   7  1   
  8   6   8  am  
  9   8   9  2   
 10   8  10  1   
 11  10  11  1   
 12  10  12  1   
 13  10  13  1   
 14  14  15  1   
 15  14  16  1   
 16  14  17  1   
 17  17  18  1   
 18  18  19  2   
 19  18  20  am  
 20  20  21  1   
 21  20  22  1   
 22  22  23  1   
 23  22  24  1   
 24  22  25  1   
@<TRIPOS>SUBSTRUCTURE
  1 ****  14 GROUP 4 **** **** 0

# MOE 2022.02 (io_trps.svl 2020.11)

@<TRIPOS>MOLECULE
FOD049
13 13 1 0 0 
SMALL
USER_CHARGES


@<TRIPOS>ATOM
  1 H        4.2160    -1.3140     0.7100 H     1 <1>   0.0600 
  2 C        3.6250    -0.3870     0.6000 C.2   1 <1>   0.4490 
  3 O        3.9930     0.6490     1.1420 O.2   1 <1>  -0.5700 
  4 C        2.4080    -0.4950    -0.2850 C.3   1 <1>   0.0610 
  5 H        2.7760    -0.7410    -1.2910 H     1 <1>   0.0000 
  6 C        1.5150    -1.6130     0.2420 C.3   1 <1>   0.2300 
  7 H        1.3040    -1.4940     1.3110 H     1 <1>   0.0000 
  8 H        1.9770    -2.5950     0.1030 H     1 <1>   0.0000 
  9 S       -0.0380    -1.5280    -0.6830 S.3   1 <1>  -0.2300 
 10 S        0.0630     0.4640    -1.1600 S.3   1 <1>  -0.2300 
 11 C        1.6260     0.8150    -0.3120 C.3   1 <1>   0.2300 
 12 H        2.1730     1.5990    -0.8460 H     1 <1>   0.0000 
 13 H        1.4080     1.1840     0.6960 H     1 <1>   0.0000 
@<TRIPOS>BOND
  1   1   2  1   
  2   2   3  2   
  3   2   4  1   
  4   4   5  1   
  5   4   6  1   
  6   4  11  1   
  7   6   7  1   
  8   6   8  1   
  9   6   9  1   
 10   9  10  1   
 11  10  11  1   
 12  11  12  1   
 13  11  13  1   
@<TRIPOS>SUBSTRUCTURE
  1 ****   4 GROUP 4 **** **** 0

# MOE 2022.02 (io_trps.svl 2020.11)

@<TRIPOS>MOLECULE
FOD050
21 21 1 0 0 
SMALL
USER_CHARGES


@<TRIPOS>ATOM
  1 H        4.5110    -2.5670    -0.6390 H     1 <1>   0.0600 
  2 C        4.6160    -1.4860    -0.4440 C.2   1 <1>   0.4490 
  3 O        5.7210    -0.9560    -0.5340 O.2   1 <1>  -0.5700 
  4 C        3.3570    -0.7800     0.0510 C.3   1 <1>   0.3310 
  5 H        3.2620    -1.0570     1.1090 H     1 <1>   0.0000 
  6 N        2.1920    -1.3060    -0.6860 N.3   1 <1>  -0.9000 
  7 H        2.2010    -2.3270    -0.7240 H     1 <1>   0.3600 
  8 C        0.9110    -0.8750    -0.0910 C.3   1 <1>   0.2700 
  9 H        0.6070    -1.6330     0.6440 H     1 <1>   0.0000 
 10 C       -0.1400    -0.8740    -1.2020 C.3   1 <1>   0.0000 
 11 H        0.0970    -0.1460    -1.9860 H     1 <1>   0.0000 
 12 H       -1.1290    -0.6270    -0.8000 H     1 <1>   0.0000 
 13 H       -0.2170    -1.8620    -1.6720 H     1 <1>   0.0000 
 14 C        0.9500     0.4700     0.6500 C.3   1 <1>   0.1940 
 15 H       -0.0530     0.8950     0.7610 H     1 <1>   0.0000 
 16 H        1.3700     0.3500     1.6550 H     1 <1>   0.0000 
 17 S        1.9760     1.6720    -0.2350 S.o   1 <1>   0.1130 
 18 O        2.0940     2.8890     0.6360 O.2   1 <1>  -0.5000 
 19 C        3.5360     0.7370    -0.0960 C.3   1 <1>   0.1940 
 20 H        4.0810     1.1280     0.7710 H     1 <1>   0.0000 
 21 H        4.1120     0.9980    -0.9910 H     1 <1>   0.0000 
@<TRIPOS>BOND
  1   1   2  1   
  2   2   3  2   
  3   2   4  1   
  4   4   5  1   
  5   4   6  1   
  6   4  19  1   
  7   6   7  1   
  8   6   8  1   
  9   8   9  1   
 10   8  10  1   
 11   8  14  1   
 12  10  11  1   
 13  10  12  1   
 14  10  13  1   
 15  14  15  1   
 16  14  16  1   
 17  14  17  1   
 18  17  18  2   
 19  17  19  1   
 20  19  20  1   
 21  19  21  1   
@<TRIPOS>SUBSTRUCTURE
  1 ****   4 GROUP 4 **** **** 0

# MOE 2022.02 (io_trps.svl 2020.11)

@<TRIPOS>MOLECULE
FOD051
20 20 1 0 0 
SMALL
USER_CHARGES


@<TRIPOS>ATOM
  1 H        4.2230     2.0350     1.9130 H     1 <1>   0.4000 
  2 N        3.3380     1.5170     2.0540 N.2   1 <1>  -0.8500 
  3 C        2.8210     1.2800     0.8880 C.2   1 <1>   0.3890 
  4 C        3.5130     1.7610    -0.3650 C.2   1 <1>   0.5100 
  5 H        2.9950     1.5380    -1.3100 H     1 <1>   0.0600 
  6 O        4.5800     2.3490    -0.2790 O.2   1 <1>  -0.5700 
  7 C        1.5150     0.5530     0.7210 C.3   1 <1>   0.1560 
  8 H        1.6210    -0.1740    -0.0930 H     1 <1>   0.0000 
  9 H        1.3150    -0.0150     1.6370 H     1 <1>   0.0000 
 10 C        0.3760     1.4950     0.4730 C.3   1 <1>  -0.1950 
 11 H        0.3140     2.2620     1.2390 H     1 <1>   0.1000 
 12 C       -0.0540     1.8490    -0.9310 C.3   1 <1>  -0.2000 
 13 H       -0.3800     2.8670    -1.1190 H     1 <1>   0.1000 
 14 H        0.4410     1.3860    -1.7770 H     1 <1>   0.1000 
 15 C       -0.9250     0.9630    -0.0790 C.3   1 <1>  -0.1950 
 16 H       -0.9860    -0.0880    -0.3400 H     1 <1>   0.1000 
 17 C       -2.2250     1.4710     0.4480 C.3   1 <1>   0.0950 
 18 H       -2.1810     2.5370     0.6940 H     1 <1>   0.0000 
 19 H       -3.0150     1.3240    -0.2950 H     1 <1>   0.0000 
 20 H       -2.5020     0.9240     1.3540 H     1 <1>   0.0000 
@<TRIPOS>BOND
  1   1   2  1   
  2   2   3  2   
  3   3   4  1   
  4   3   7  1   
  5   4   5  1   
  6   4   6  2   
  7   7   8  1   
  8   7   9  1   
  9   7  10  1   
 10  10  11  1   
 11  10  12  1   
 12  10  15  1   
 13  12  13  1   
 14  12  14  1   
 15  12  15  1   
 16  15  16  1   
 17  15  17  1   
 18  17  18  1   
 19  17  19  1   
 20  17  20  1   
@<TRIPOS>SUBSTRUCTURE
  1 ****   7 GROUP 4 **** **** 0

# MOE 2022.02 (io_trps.svl 2020.11)

@<TRIPOS>MOLECULE
FOD052
22 23 1 0 0 
SMALL
USER_CHARGES


@<TRIPOS>ATOM
  1 H        5.1320    -0.2520    -1.7320 H     1 <1>   0.5000 
  2 O        4.6160    -0.3810    -0.9050 O.3   1 <1>  -0.6500 
  3 C        4.1550    -1.6420    -0.9970 C.2   1 <1>   0.6590 
  4 O        4.4270    -2.3190    -1.9730 O.2   1 <1>  -0.5700 
  5 C        3.4240    -2.0870     0.2390 C.3   1 <1>   0.0610 
  6 H        4.1860    -2.2020     1.0230 H     1 <1>   0.0000 
  7 C        2.7200    -3.4410     0.0700 C.3   1 <1>   0.2800 
  8 H        3.3890    -4.3050     0.1000 H     1 <1>   0.0000 
  9 O        1.8230    -3.4130     1.2140 O.3   1 <1>  -0.5600 
 10 C        1.1160    -2.1950     0.8480 C.3   1 <1>   0.2800 
 11 H        0.3420    -1.9410     1.5760 H     1 <1>   0.0000 
 12 C        0.5780    -2.6010    -0.5240 C.3   1 <1>   0.0000 
 13 H       -0.3270    -3.2090    -0.4080 H     1 <1>   0.0000 
 14 H        0.3330    -1.7690    -1.1860 H     1 <1>   0.0000 
 15 C        1.7020    -3.4760    -1.0690 C.3   1 <1>   0.0000 
 16 H        1.3270    -4.4970    -1.2080 H     1 <1>   0.0000 
 17 H        2.0800    -3.1280    -2.0320 H     1 <1>   0.0000 
 18 C        2.2910    -1.2120     0.8040 C.3   1 <1>   0.0610 
 19 H        2.5570    -0.9580     1.8400 H     1 <1>   0.0000 
 20 C        1.9920     0.1040     0.1300 C.2   1 <1>   0.4490 
 21 H        2.8140     0.8390     0.1300 H     1 <1>   0.0600 
 22 O        0.8970     0.4180    -0.3250 O.2   1 <1>  -0.5700 
@<TRIPOS>BOND
  1   1   2  1   
  2   2   3  1   
  3   3   4  2   
  4   3   5  1   
  5   5   6  1   
  6   5   7  1   
  7   5  18  1   
  8   7   8  1   
  9   7   9  1   
 10   7  15  1   
 11   9  10  1   
 12  10  11  1   
 13  10  12  1   
 14  10  18  1   
 15  12  13  1   
 16  12  14  1   
 17  12  15  1   
 18  15  16  1   
 19  15  17  1   
 20  18  19  1   
 21  18  20  1   
 22  20  21  1   
 23  20  22  2   
@<TRIPOS>SUBSTRUCTURE
  1 ****   5 GROUP 4 **** **** 0

# MOE 2022.02 (io_trps.svl 2020.11)

@<TRIPOS>MOLECULE
FOD053
18 17 1 0 0 
SMALL
USER_CHARGES


@<TRIPOS>ATOM
  1 H        1.1320    -0.3500    -0.4710 H     1 <1>   0.0600 
  2 C        0.1940     0.2030    -0.6300 C.2   1 <1>   0.4960 
  3 O       -0.8050    -0.3470    -1.0760 O.2   1 <1>  -0.5700 
  4 C        0.1950     1.6400    -0.2950 C.2   1 <1>  -0.1360 
  5 H       -0.7490     2.1390    -0.5050 H     1 <1>   0.1500 
  6 C        1.2500     2.3040     0.2090 C.2   1 <1>  -0.1240 
  7 C        1.0460     3.7620     0.4730 C.2   1 <1>   0.4960 
  8 H        1.9100     4.2810     0.9220 H     1 <1>   0.0600 
  9 O        0.0090     4.3590     0.2160 O.2   1 <1>  -0.5700 
 10 C        2.6010     1.7550     0.5760 C.3   1 <1>   0.1380 
 11 H        2.9410     2.2190     1.5120 H     1 <1>   0.0000 
 12 H        2.5440     0.6850     0.8070 H     1 <1>   0.0000 
 13 C        3.6300     1.9940    -0.5230 C.3   1 <1>   0.0610 
 14 H        3.7150     3.0590    -0.7640 H     1 <1>   0.0000 
 15 H        3.3650     1.4620    -1.4440 H     1 <1>   0.0000 
 16 C        4.9760     1.5000    -0.0690 C.2   1 <1>   0.4490 
 17 H        5.1030     0.4050    -0.0350 H     1 <1>   0.0600 
 18 O        5.8770     2.2540     0.2840 O.2   1 <1>  -0.5700 
@<TRIPOS>BOND
  1   1   2  1   
  2   2   3  2   
  3   2   4  1   
  4   4   5  1   
  5   4   6  2   
  6   6   7  1   
  7   6  10  1   
  8   7   8  1   
  9   7   9  2   
 10  10  11  1   
 11  10  12  1   
 12  10  13  1   
 13  13  14  1   
 14  13  15  1   
 15  13  16  1   
 16  16  17  1   
 17  16  18  2   
@<TRIPOS>SUBSTRUCTURE
  1 ****   6 GROUP 4 **** **** 0

# MOE 2022.02 (io_trps.svl 2020.11)

@<TRIPOS>MOLECULE
FOD054
20 19 1 0 0 
SMALL
USER_CHARGES


@<TRIPOS>ATOM
  1 H       -1.3520     2.2380    -0.5970 H     1 <1>   0.4000 
  2 O       -0.3810     2.2780    -0.5770 O.3   1 <1>  -0.6800 
  3 C       -0.0320     3.3580     0.2720 C.3   1 <1>   0.4180 
  4 H       -0.4890     4.2740    -0.1160 H     1 <1>   0.0000 
  5 H       -0.4250     3.1590     1.2740 H     1 <1>   0.0000 
  6 C        1.4550     3.4400     0.3130 C.2   1 <1>  -0.2880 
  7 H        1.9720     2.5320     0.6150 H     1 <1>   0.1500 
  8 C        2.1570     4.5390     0.0030 C.2   1 <1>  -0.0850 
  9 H        1.6570     5.4510    -0.3080 H     1 <1>   0.1500 
 10 C        3.5760     4.5540     0.0650 C.1   1 <1>  -0.0650 
 11 C        4.7760     4.5740     0.1160 C.1   1 <1>   0.0000 
 12 C        6.2060     4.6010     0.1770 C.1   1 <1>   0.0000 
 13 C        7.4050     4.6260     0.2270 C.1   1 <1>  -0.0650 
 14 C        8.8250     4.6490     0.2880 C.2   1 <1>  -0.0850 
 15 H        9.3210     3.7580     0.6610 H     1 <1>   0.1500 
 16 C        9.5150     5.7280    -0.0990 C.2   1 <1>  -0.1360 
 17 H        9.0480     6.6320    -0.4750 H     1 <1>   0.1500 
 18 C       10.9870     5.7280    -0.0250 C.2   1 <1>   0.4960 
 19 H       11.4610     4.8100     0.3580 H     1 <1>   0.0600 
 20 O       11.6410     6.7020    -0.3740 O.2   1 <1>  -0.5700 
@<TRIPOS>BOND
  1   1   2  1   
  2   2   3  1   
  3   3   4  1   
  4   3   5  1   
  5   3   6  1   
  6   6   7  1   
  7   6   8  2   
  8   8   9  1   
  9   8  10  1   
 10  10  11  3   
 11  11  12  1   
 12  12  13  3   
 13  13  14  1   
 14  14  15  1   
 15  14  16  2   
 16  16  17  1   
 17  16  18  1   
 18  18  19  1   
 19  18  20  2   
@<TRIPOS>SUBSTRUCTURE
  1 ****  12 GROUP 4 **** **** 0

# MOE 2022.02 (io_trps.svl 2020.11)

@<TRIPOS>MOLECULE
FOD055
31 31 1 0 0 
SMALL
USER_CHARGES


@<TRIPOS>ATOM
  1 H        1.1130    -3.3640    -0.8080 H     1 <1>   0.4500 
  2 O        1.0150    -2.4530    -0.4860 O.3   1 <1>  -0.5320 
  3 C        2.2410    -1.8500    -0.4570 C.ar  1 <1>   0.0820 
  4 C        3.3530    -2.5940    -0.8660 C.ar  1 <1>  -0.1500 
  5 H        3.2460    -3.6210    -1.2040 H     1 <1>   0.1500 
  6 C        4.6290    -2.0240    -0.8560 C.ar  1 <1>  -0.1500 
  7 H        5.4690    -2.6210    -1.2010 H     1 <1>   0.1500 
  8 C        4.8120    -0.7070    -0.4270 C.ar  1 <1>   0.0280 
  9 C        6.1260    -0.0490    -0.4260 C.2   1 <1>  -0.1780 
 10 H        6.1200     1.0180    -0.6470 H     1 <1>   0.1500 
 11 C        7.2820    -0.6710    -0.1480 C.2   1 <1>  -0.1360 
 12 H        7.3400    -1.7220     0.1050 H     1 <1>   0.1500 
 13 C        8.5480     0.0900    -0.1600 C.2   1 <1>   0.7060 
 14 O        8.6590     1.2790    -0.4050 O.2   1 <1>  -0.5700 
 15 O        9.5580    -0.7630     0.1480 O.3   1 <1>  -0.4300 
 16 C       10.8530    -0.1430     0.1760 C.3   1 <1>   0.2800 
 17 H       10.8570     0.6590     0.9260 H     1 <1>   0.0000 
 18 H       11.0730     0.2870    -0.8090 H     1 <1>   0.0000 
 19 C       11.8850    -1.2030     0.5320 C.3   1 <1>   0.2000 
 20 H       11.6300    -1.6560     1.4980 H     1 <1>   0.0000 
 21 H       11.8450    -2.0170    -0.2010 H     1 <1>   0.0000 
 22 C       13.2290    -0.6260     0.5800 C.1   1 <1>   0.3570 
 23 N       14.2930    -0.1650     0.6160 N.1   1 <1>  -0.5570 
 24 C        3.6870     0.0320    -0.0360 C.ar  1 <1>  -0.1500 
 25 H        3.8010     1.0650     0.2890 H     1 <1>   0.1500 
 26 C        2.3980    -0.5250    -0.0390 C.ar  1 <1>   0.0820 
 27 O        1.4390     0.3550     0.3860 O.3   1 <1>  -0.3630 
 28 C        0.0920    -0.0890     0.4370 C.3   1 <1>   0.2800 
 29 H       -0.2800    -0.3460    -0.5600 H     1 <1>   0.0000 
 30 H       -0.5160     0.7460     0.8020 H     1 <1>   0.0000 
 31 H       -0.0300    -0.9110     1.1480 H     1 <1>   0.0000 
@<TRIPOS>BOND
  1   1   2  1   
  2   2   3  1   
  3   3   4  ar  
  4   3  26  ar  
  5   4   5  1   
  6   4   6  ar  
  7   6   7  1   
  8   6   8  ar  
  9   8   9  1   
 10   8  24  ar  
 11   9  10  1   
 12   9  11  2   
 13  11  12  1   
 14  11  13  1   
 15  13  14  2   
 16  13  15  1   
 17  15  16  1   
 18  16  17  1   
 19  16  18  1   
 20  16  19  1   
 21  19  20  1   
 22  19  21  1   
 23  19  22  1   
 24  22  23  3   
 25  24  25  1   
 26  24  26  ar  
 27  26  27  1   
 28  27  28  1   
 29  28  29  1   
 30  28  30  1   
 31  28  31  1   
@<TRIPOS>SUBSTRUCTURE
  1 ****   9 GROUP 4 **** **** 0

# MOE 2022.02 (io_trps.svl 2020.11)

@<TRIPOS>MOLECULE
FOD056
23 22 1 0 0 
SMALL
USER_CHARGES


@<TRIPOS>ATOM
  1 H        5.3260    -0.6060     0.0000 H     1 <1>   0.0000 
  2 C        5.3260     0.5940     0.0000 C.2   1 <1>   0.0000 
  3 O        6.6250     1.3440     0.0000 O.2   1 <1>   0.0000 
  4 C        4.0270     1.3440     0.0000 C.3   1 <1>   0.0000 
  5 H        4.0270     0.1440     0.0000 H     1 <1>   0.0000 
  6 N        4.0270     2.8440     0.0000 N.3   1 <1>   0.0000 
  7 H        5.0660     3.4440     0.0000 H     1 <1>   0.0000 
  8 H        2.9870     3.4440     0.0000 H     1 <1>   0.0000 
  9 C        2.7280     0.5940     0.0000 C.3   1 <1>   0.0000 
 10 H        1.9560    -0.3260     0.0000 H     1 <1>   0.0000 
 11 H        3.4990    -0.3260     0.0000 H     1 <1>   0.0000 
 12 C        1.4290     1.3440     0.0000 C.3   1 <1>   0.0000 
 13 H        0.6570     2.2630     0.0000 H     1 <1>   0.0000 
 14 H        2.2000     2.2630     0.0000 H     1 <1>   0.0000 
 15 S        0.1300     0.5940     0.0000 S.3   1 <1>   1.0000 
 16 C       -1.1690     1.3440     0.0000 C.3   1 <1>   0.0000 
 17 H       -0.5690     2.3830     0.0000 H     1 <1>   0.0000 
 18 H       -2.2090     1.9440     0.0000 H     1 <1>   0.0000 
 19 H       -1.7690     0.3040     0.0000 H     1 <1>   0.0000 
 20 C        0.1300    -0.9060     0.0000 C.3   1 <1>   0.0000 
 21 H       -1.0700    -0.9060     0.0000 H     1 <1>   0.0000 
 22 H        0.1300    -2.1060     0.0000 H     1 <1>   0.0000 
 23 H        1.3300    -0.9060     0.0000 H     1 <1>   0.0000 
@<TRIPOS>BOND
  1   1   2  1   
  2   2   3  2   
  3   2   4  1   
  4   4   5  1   
  5   4   6  1   
  6   4   9  1   
  7   6   7  1   
  8   6   8  1   
  9   9  10  1   
 10   9  11  1   
 11   9  12  1   
 12  12  13  1   
 13  12  14  1   
 14  12  15  1   
 15  15  16  1   
 16  15  20  1   
 17  16  17  1   
 18  16  18  1   
 19  16  19  1   
 20  20  21  1   
 21  20  22  1   
 22  20  23  1   
@<TRIPOS>SUBSTRUCTURE
  1 ****   9 GROUP 4 **** **** 0

# MOE 2022.02 (io_trps.svl 2020.11)

@<TRIPOS>MOLECULE
FOD057
19 19 1 0 0 
SMALL
USER_CHARGES


@<TRIPOS>ATOM
  1 H        5.7880    -2.3080     0.5080 H     1 <1>   0.5000 
  2 O        4.8910    -2.5230     0.1760 O.3   1 <1>  -0.6500 
  3 C        4.2020    -1.3720     0.3570 C.2   1 <1>   0.6590 
  4 O        4.7760    -0.3990     0.8260 O.2   1 <1>  -0.5700 
  5 C        2.7610    -1.4800    -0.1300 C.3   1 <1>   0.3310 
  6 H        2.8170    -1.5920    -1.2220 H     1 <1>   0.0000 
  7 N        1.9170    -0.2710     0.1350 N.3   1 <1>  -0.5400 
  8 N        2.0400     0.1670     1.5260 N.3   1 <1>  -0.7200 
  9 H        3.0090     0.4710     1.7010 H     1 <1>   0.3600 
 10 H        1.4920     1.0210     1.6670 H     1 <1>   0.3600 
 11 C        0.5450    -0.7850    -0.0630 C.3   1 <1>   0.2700 
 12 H        0.3390    -0.8190    -1.1400 H     1 <1>   0.0000 
 13 H       -0.2280    -0.1500     0.3860 H     1 <1>   0.0000 
 14 C        0.5380    -2.1990     0.5050 C.3   1 <1>   0.0000 
 15 H        0.1750    -2.2020     1.5390 H     1 <1>   0.0000 
 16 H       -0.1090    -2.8610    -0.0790 H     1 <1>   0.0000 
 17 C        1.9920    -2.6550     0.4660 C.3   1 <1>   0.0000 
 18 H        2.1050    -3.5540    -0.1500 H     1 <1>   0.0000 
 19 H        2.3370    -2.9030     1.4770 H     1 <1>   0.0000 
@<TRIPOS>BOND
  1   1   2  1   
  2   2   3  1   
  3   3   4  2   
  4   3   5  1   
  5   5   6  1   
  6   5   7  1   
  7   5  17  1   
  8   7   8  1   
  9   7  11  1   
 10   8   9  1   
 11   8  10  1   
 12  11  12  1   
 13  11  13  1   
 14  11  14  1   
 15  14  15  1   
 16  14  16  1   
 17  14  17  1   
 18  17  18  1   
 19  17  19  1   
@<TRIPOS>SUBSTRUCTURE
  1 ****   5 GROUP 4 **** **** 0

# MOE 2022.02 (io_trps.svl 2020.11)

@<TRIPOS>MOLECULE
FOD058
20 19 1 0 0 
SMALL
USER_CHARGES


@<TRIPOS>ATOM
  1 H        8.4810    -3.2670    -0.5100 H     1 <1>   0.0600 
  2 C        8.2010    -2.2250    -0.7460 C.2   1 <1>   0.4490 
  3 O        8.5650    -1.6980    -1.7920 O.2   1 <1>  -0.5700 
  4 C        7.3620    -1.5220     0.2840 C.3   1 <1>   0.0610 
  5 H        7.9010    -1.5690     1.2360 H     1 <1>   0.0000 
  6 H        7.2620    -0.4700    -0.0060 H     1 <1>   0.0000 
  7 C        6.0090    -2.2080     0.3650 C.3   1 <1>   0.2300 
  8 H        5.4970    -2.1430    -0.6010 H     1 <1>   0.0000 
  9 H        6.1350    -3.2670     0.6150 H     1 <1>   0.0000 
 10 S        4.9920    -1.4090     1.6470 S.3   1 <1>  -0.2300 
 11 S        3.2630    -2.5190     1.5730 S.3   1 <1>  -0.2300 
 12 C        2.3410    -1.6940     0.2370 C.3   1 <1>   0.2300 
 13 H        2.1990    -0.6390     0.4970 H     1 <1>   0.0000 
 14 H        2.9200    -1.7430    -0.6910 H     1 <1>   0.0000 
 15 C        0.9950    -2.3730     0.0480 C.3   1 <1>   0.0610 
 16 H        0.3900    -2.3420     0.9610 H     1 <1>   0.0000 
 17 H        1.1130    -3.4200    -0.2530 H     1 <1>   0.0000 
 18 C        0.2310    -1.6480    -1.0240 C.2   1 <1>   0.4490 
 19 H       -0.0640    -0.6110    -0.7880 H     1 <1>   0.0600 
 20 O       -0.0560    -2.1530    -2.1040 O.2   1 <1>  -0.5700 
@<TRIPOS>BOND
  1   1   2  1   
  2   2   3  2   
  3   2   4  1   
  4   4   5  1   
  5   4   6  1   
  6   4   7  1   
  7   7   8  1   
  8   7   9  1   
  9   7  10  1   
 10  10  11  1   
 11  11  12  1   
 12  12  13  1   
 13  12  14  1   
 14  12  15  1   
 15  15  16  1   
 16  15  17  1   
 17  15  18  1   
 18  18  19  1   
 19  18  20  2   
@<TRIPOS>SUBSTRUCTURE
  1 ****  12 GROUP 4 **** **** 0

# MOE 2022.02 (io_trps.svl 2020.11)

@<TRIPOS>MOLECULE
FOD059
13 12 1 0 0 
SMALL
USER_CHARGES


@<TRIPOS>ATOM
  1 H        1.0350     1.3230     1.9270 H     1 <1>   0.4000 
  2 N        1.7940     1.0770     1.2820 N.2   1 <1>  -0.8500 
  3 C        1.4060     0.0360     0.6360 C.2   1 <1>   0.7320 
  4 S        2.3850    -0.7600    -0.5540 S.3   1 <1>  -0.3710 
  5 C        3.9150     0.1840    -0.4070 C.3   1 <1>   0.2300 
  6 H        4.3210     0.1110     0.6060 H     1 <1>   0.0000 
  7 H        4.6550    -0.2230    -1.1020 H     1 <1>   0.0000 
  8 H        3.7490     1.2350    -0.6620 H     1 <1>   0.0000 
  9 S       -0.1680    -0.6190     0.9640 S.3   1 <1>  -0.3710 
 10 C       -1.0690     0.1510    -0.3990 C.3   1 <1>   0.2300 
 11 H       -0.6950    -0.2070    -1.3620 H     1 <1>   0.0000 
 12 H       -0.9720     1.2390    -0.3550 H     1 <1>   0.0000 
 13 H       -2.1290    -0.1070    -0.3220 H     1 <1>   0.0000 
@<TRIPOS>BOND
  1   1   2  1   
  2   2   3  2   
  3   3   4  1   
  4   3   9  1   
  5   4   5  1   
  6   5   6  1   
  7   5   7  1   
  8   5   8  1   
  9   9  10  1   
 10  10  11  1   
 11  10  12  1   
 12  10  13  1   
@<TRIPOS>SUBSTRUCTURE
  1 ****   3 GROUP 4 **** **** 0

# MOE 2022.02 (io_trps.svl 2020.11)

@<TRIPOS>MOLECULE
FOD060
22 23 1 0 0 
SMALL
USER_CHARGES


@<TRIPOS>ATOM
  1 H       -3.7830     2.9250     0.9080 H     1 <1>   0.1500 
  2 C       -3.0740     3.6680     0.5720 C.2   1 <1>   0.3280 
  3 N       -3.3150     4.8900     0.1550 N.2   1 <1>  -0.5650 
  4 C       -2.0650     5.3730    -0.1420 C.2   1 <1>   0.0770 
  5 H       -1.9260     6.3760    -0.5180 H     1 <1>   0.1500 
  6 C       -1.1040     4.4150     0.1080 C.2   1 <1>   0.0870 
  7 C        0.3450     4.3310    -0.0090 C.ar  1 <1>   0.0530 
  8 C        1.0420     3.1740     0.3710 C.ar  1 <1>  -0.1500 
  9 H        0.5050     2.3140     0.7650 H     1 <1>   0.1500 
 10 C        2.4370     3.0940     0.2540 C.ar  1 <1>  -0.1500 
 11 H        2.9200     2.1730     0.5630 H     1 <1>   0.1500 
 12 C        3.1610     4.1730    -0.2470 C.ar  1 <1>   0.0820 
 13 O        4.5160     4.2270    -0.4150 O.3   1 <1>  -0.3630 
 14 C        5.2570     3.0730    -0.0380 C.3   1 <1>   0.2800 
 15 H        4.9690     2.2050    -0.6390 H     1 <1>   0.0000 
 16 H        6.3140     3.2770    -0.2310 H     1 <1>   0.0000 
 17 H        5.1480     2.8680     1.0330 H     1 <1>   0.0000 
 18 C        2.4770     5.3290    -0.6270 C.ar  1 <1>  -0.1500 
 19 H        3.0340     6.1770    -1.0190 H     1 <1>   0.1500 
 20 C        1.0850     5.4100    -0.5090 C.ar  1 <1>  -0.1500 
 21 H        0.5950     6.3300    -0.8180 H     1 <1>   0.1500 
 22 O       -1.7640     3.3040     0.5740 O.3   1 <1>  -0.2800 
@<TRIPOS>BOND
  1   1   2  1   
  2   2   3  2   
  3   2  22  1   
  4   3   4  1   
  5   4   5  1   
  6   4   6  2   
  7   6   7  1   
  8   6  22  1   
  9   7   8  ar  
 10   7  20  ar  
 11   8   9  1   
 12   8  10  ar  
 13  10  11  1   
 14  10  12  ar  
 15  12  13  1   
 16  12  18  ar  
 17  13  14  1   
 18  14  15  1   
 19  14  16  1   
 20  14  17  1   
 21  18  19  1   
 22  18  20  ar  
 23  20  21  1   
@<TRIPOS>SUBSTRUCTURE
  1 ****   7 GROUP 4 **** **** 0

# MOE 2022.02 (io_trps.svl 2020.11)

@<TRIPOS>MOLECULE
FOD061
18 18 1 0 0 
SMALL
USER_CHARGES


@<TRIPOS>ATOM
  1 H        7.4580     1.2560    -0.4020 H     1 <1>   0.4000 
  2 N        7.0900     0.5510     0.2480 N.2   1 <1>  -0.8500 
  3 C        6.3420    -0.2850    -0.3940 C.2   1 <1>   0.3290 
  4 H        6.1880    -0.1830    -1.4820 H     1 <1>   0.0600 
  5 C        5.6610    -1.4340     0.3000 C.3   1 <1>   0.2040 
  6 H        6.0390    -2.3610    -0.1450 H     1 <1>   0.0000 
  7 H        5.9330    -1.4480     1.3620 H     1 <1>   0.0000 
  8 C        4.1630    -1.3540     0.1550 C.ar  1 <1>  -0.1440 
  9 C        3.4350    -0.4070     0.8880 C.ar  1 <1>  -0.1500 
 10 H        3.9470     0.2670     1.5720 H     1 <1>   0.1500 
 11 C        2.0500    -0.3160     0.7470 C.ar  1 <1>  -0.1500 
 12 H        1.4940     0.4210     1.3210 H     1 <1>   0.1500 
 13 C        1.3800    -1.1690    -0.1270 C.ar  1 <1>  -0.1500 
 14 H        0.3010    -1.0980    -0.2350 H     1 <1>   0.1500 
 15 C        2.0940    -2.1130    -0.8630 C.ar  1 <1>  -0.1500 
 16 H        1.5710    -2.7780    -1.5440 H     1 <1>   0.1500 
 17 C        3.4800    -2.2050    -0.7250 C.ar  1 <1>  -0.1500 
 18 H        4.0200    -2.9480    -1.3070 H     1 <1>   0.1500 
@<TRIPOS>BOND
  1   1   2  1   
  2   2   3  2   
  3   3   4  1   
  4   3   5  1   
  5   5   6  1   
  6   5   7  1   
  7   5   8  1   
  8   8   9  ar  
  9   8  17  ar  
 10   9  10  1   
 11   9  11  ar  
 12  11  12  1   
 13  11  13  ar  
 14  13  14  1   
 15  13  15  ar  
 16  15  16  1   
 17  15  17  ar  
 18  17  18  1   
@<TRIPOS>SUBSTRUCTURE
  1 ****   8 GROUP 4 **** **** 0

# MOE 2022.02 (io_trps.svl 2020.11)

@<TRIPOS>MOLECULE
FOD062
29 29 1 0 0 
SMALL
USER_CHARGES


@<TRIPOS>ATOM
  1 H        7.7140    -3.3880    -0.8290 H     1 <1>   0.4000 
  2 O        6.7440    -3.4380    -0.8450 O.3   1 <1>  -0.6800 
  3 C        6.2870    -2.8280     0.3520 C.3   1 <1>   0.4180 
  4 H        6.7120    -1.8210     0.4110 H     1 <1>   0.0000 
  5 H        6.6510    -3.4070     1.2070 H     1 <1>   0.0000 
  6 C        4.7860    -2.8020     0.3400 C.2   1 <1>  -0.2760 
  7 C        4.0870    -1.6560     0.4130 C.2   1 <1>  -0.2880 
  8 H        4.6080    -0.7050     0.4930 H     1 <1>   0.1500 
  9 C        2.5880    -1.5840     0.3720 C.3   1 <1>   0.1380 
 10 H        2.3120    -0.7860    -0.3270 H     1 <1>   0.0000 
 11 H        2.2380    -1.2790     1.3660 H     1 <1>   0.0000 
 12 C        1.8960    -2.8970    -0.0580 C.3   1 <1>   0.0000 
 13 H        2.0220    -3.0040    -1.1450 H     1 <1>   0.0000 
 14 C        0.3690    -2.8650     0.2470 C.3   1 <1>   0.0000 
 15 H        0.2300    -2.7740     1.3320 H     1 <1>   0.0000 
 16 C       -0.3220    -1.6630    -0.4110 C.3   1 <1>   0.0000 
 17 H        0.0380    -0.7170     0.0020 H     1 <1>   0.0000 
 18 H       -0.1530    -1.6530    -1.4930 H     1 <1>   0.0000 
 19 H       -1.4040    -1.6930    -0.2390 H     1 <1>   0.0000 
 20 C       -0.3440    -4.1450    -0.2060 C.3   1 <1>   0.0000 
 21 H       -1.4270    -4.0590    -0.0650 H     1 <1>   0.0000 
 22 H       -0.1560    -4.3490    -1.2650 H     1 <1>   0.0000 
 23 H       -0.0200    -5.0120     0.3770 H     1 <1>   0.0000 
 24 C        2.6060    -4.0880     0.6110 C.3   1 <1>   0.0000 
 25 H        2.1590    -5.0390     0.3050 H     1 <1>   0.0000 
 26 H        2.4930    -4.0180     1.7010 H     1 <1>   0.0000 
 27 C        4.0960    -4.1380     0.2530 C.3   1 <1>   0.1380 
 28 H        4.2070    -4.5250    -0.7680 H     1 <1>   0.0000 
 29 H        4.5850    -4.8550     0.9240 H     1 <1>   0.0000 
@<TRIPOS>BOND
  1   1   2  1   
  2   2   3  1   
  3   3   4  1   
  4   3   5  1   
  5   3   6  1   
  6   6   7  2   
  7   6  27  1   
  8   7   8  1   
  9   7   9  1   
 10   9  10  1   
 11   9  11  1   
 12   9  12  1   
 13  12  13  1   
 14  12  14  1   
 15  12  24  1   
 16  14  15  1   
 17  14  16  1   
 18  14  20  1   
 19  16  17  1   
 20  16  18  1   
 21  16  19  1   
 22  20  21  1   
 23  20  22  1   
 24  20  23  1   
 25  24  25  1   
 26  24  26  1   
 27  24  27  1   
 28  27  28  1   
 29  27  29  1   
@<TRIPOS>SUBSTRUCTURE
  1 ****  12 GROUP 4 **** **** 0

# MOE 2022.02 (io_trps.svl 2020.11)

@<TRIPOS>MOLECULE
FOD063
21 20 1 0 0 
SMALL
USER_CHARGES


@<TRIPOS>ATOM
  1 H        6.0790     0.2520    -0.2590 H     1 <1>   0.0000 
  2 C        5.8160    -0.1080     0.7410 C.3   1 <1>   0.0000 
  3 H        6.6800    -0.6250     1.1690 H     1 <1>   0.0000 
  4 H        5.5960     0.7760     1.3490 H     1 <1>   0.0000 
  5 C        4.6100    -1.0260     0.6780 C.3   1 <1>   0.2800 
  6 H        4.8500    -1.8910     0.0530 H     1 <1>   0.0000 
  7 H        4.3640    -1.3630     1.6890 H     1 <1>   0.0000 
  8 O        3.5280    -0.2880     0.1210 O.3   1 <1>  -0.5600 
  9 C        2.2800    -0.9790    -0.0450 C.3   1 <1>   0.2800 
 10 C        2.4080    -2.1410    -1.0370 C.3   1 <1>   0.0000 
 11 H        1.4280    -2.5570    -1.2940 H     1 <1>   0.0000 
 12 H        3.0120    -2.9570    -0.6250 H     1 <1>   0.0000 
 13 H        2.9020    -1.8150    -1.9590 H     1 <1>   0.0000 
 14 C        1.7200    -1.4670     1.2960 C.3   1 <1>   0.0000 
 15 H        1.7270    -0.6610     2.0380 H     1 <1>   0.0000 
 16 H        0.6940    -1.8360     1.1900 H     1 <1>   0.0000 
 17 H        2.3200    -2.2850     1.7090 H     1 <1>   0.0000 
 18 C        1.3210     0.0680    -0.6290 C.3   1 <1>   0.0000 
 19 H        1.2270     0.9280     0.0430 H     1 <1>   0.0000 
 20 H        1.7030     0.4580    -1.5800 H     1 <1>   0.0000 
 21 H        0.3220    -0.3460    -0.8020 H     1 <1>   0.0000 
@<TRIPOS>BOND
  1   1   2  1   
  2   2   3  1   
  3   2   4  1   
  4   2   5  1   
  5   5   6  1   
  6   5   7  1   
  7   5   8  1   
  8   8   9  1   
  9   9  10  1   
 10   9  14  1   
 11   9  18  1   
 12  10  11  1   
 13  10  12  1   
 14  10  13  1   
 15  14  15  1   
 16  14  16  1   
 17  14  17  1   
 18  18  19  1   
 19  18  20  1   
 20  18  21  1   
@<TRIPOS>SUBSTRUCTURE
  1 ****   8 GROUP 4 **** **** 0

# MOE 2022.02 (io_trps.svl 2020.11)

@<TRIPOS>MOLECULE
FOD064
14 14 1 0 0 
SMALL
USER_CHARGES


@<TRIPOS>ATOM
  1 H        3.7740    -1.1210    -1.4270 H     1 <1>   0.0600 
  2 C        3.4600    -0.2780    -0.7870 C.2   1 <1>   0.4490 
  3 O        4.1780     0.7180    -0.7070 O.2   1 <1>  -0.5700 
  4 C        2.2030    -0.5250     0.0450 C.3   1 <1>   0.4690 
  5 H        2.5020    -0.9260     1.0200 H     1 <1>   0.0000 
  6 C        1.2760    -1.4810    -0.6260 C.2   1 <1>  -0.2880 
  7 H        1.5520    -2.4700    -0.9650 H     1 <1>   0.1500 
  8 C        0.0500    -0.9600    -0.7090 C.2   1 <1>  -0.2880 
  9 H       -0.8140    -1.4530    -1.1300 H     1 <1>   0.1500 
 10 C        0.0190     0.4000    -0.1120 C.3   1 <1>   0.4080 
 11 H       -0.3950     1.1320    -0.8110 H     1 <1>   0.0000 
 12 H       -0.5830     0.4000     0.8030 H     1 <1>   0.0000 
 13 N        1.4190     0.7190     0.1810 N.3   1 <1>  -0.9000 
 14 H        1.5230     1.0980     1.1190 H     1 <1>   0.3600 
@<TRIPOS>BOND
  1   1   2  1   
  2   2   3  2   
  3   2   4  1   
  4   4   5  1   
  5   4   6  1   
  6   4  13  1   
  7   6   7  1   
  8   6   8  2   
  9   8   9  1   
 10   8  10  1   
 11  10  11  1   
 12  10  12  1   
 13  10  13  1   
 14  13  14  1   
@<TRIPOS>SUBSTRUCTURE
  1 ****   4 GROUP 4 **** **** 0

# MOE 2022.02 (io_trps.svl 2020.11)

@<TRIPOS>MOLECULE
FOD065
38 37 1 0 0 
SMALL
USER_CHARGES


@<TRIPOS>ATOM
  1 H       15.1840     3.6850    -0.0870 H     1 <1>   0.3600 
  2 N       14.3410     3.1150    -0.0650 N.3   1 <1>  -0.9900 
  3 H       14.3540     2.6150     0.8230 H     1 <1>   0.3600 
  4 C       13.1660     3.9780    -0.1320 C.3   1 <1>   0.2700 
  5 H       13.1770     4.5200    -1.0830 H     1 <1>   0.0000 
  6 H       13.2180     4.7190     0.6740 H     1 <1>   0.0000 
  7 C       11.8840     3.1550    -0.0090 C.3   1 <1>   0.0000 
  8 H       11.8860     2.6070     0.9420 H     1 <1>   0.0000 
  9 H       11.8450     2.4080    -0.8130 H     1 <1>   0.0000 
 10 C       10.6510     4.0580    -0.0830 C.3   1 <1>   0.2700 
 11 H       10.6550     4.6010    -1.0350 H     1 <1>   0.0000 
 12 H       10.6890     4.7950     0.7280 H     1 <1>   0.0000 
 13 N        9.4330     3.2530     0.0250 N.3   1 <1>  -0.9000 
 14 H        9.4440     2.7250     0.8970 H     1 <1>   0.3600 
 15 C        8.2360     4.0910    -0.0330 C.3   1 <1>   0.2700 
 16 H        8.2130     4.6480    -0.9770 H     1 <1>   0.0000 
 17 H        8.2390     4.8160     0.7900 H     1 <1>   0.0000 
 18 C        6.9890     3.2100     0.0640 C.3   1 <1>   0.0000 
 19 H        7.0030     2.6460     1.0050 H     1 <1>   0.0000 
 20 H        6.9890     2.4780    -0.7530 H     1 <1>   0.0000 
 21 C        5.7100     4.0500    -0.0040 C.3   1 <1>   0.0000 
 22 H        5.6990     4.6230    -0.9400 H     1 <1>   0.0000 
 23 H        5.7050     4.7750     0.8200 H     1 <1>   0.0000 
 24 C        4.4640     3.1640     0.0740 C.3   1 <1>   0.2700 
 25 H        4.4750     2.5980     1.0130 H     1 <1>   0.0000 
 26 H        4.4760     2.4480    -0.7560 H     1 <1>   0.0000 
 27 N        3.2630     3.9960    -0.0030 N.3   1 <1>  -0.9000 
 28 H        3.2630     4.6720     0.7610 H     1 <1>   0.3600 
 29 C        2.0510     3.1790     0.0640 C.3   1 <1>   0.2700 
 30 H        2.0290     2.6080     1.0000 H     1 <1>   0.0000 
 31 H        2.0330     2.4670    -0.7690 H     1 <1>   0.0000 
 32 C        0.8170     4.0790    -0.0130 C.3   1 <1>   0.0000 
 33 H        0.8210     4.7960     0.8170 H     1 <1>   0.0000 
 34 H        0.8320     4.6590    -0.9430 H     1 <1>   0.0000 
 35 C       -0.4680     3.2660     0.0430 C.3   1 <1>   0.0000 
 36 H       -0.5310     2.6960     0.9750 H     1 <1>   0.0000 
 37 H       -1.3380     3.9270    -0.0110 H     1 <1>   0.0000 
 38 H       -0.5230     2.5630    -0.7940 H     1 <1>   0.0000 
@<TRIPOS>BOND
  1   1   2  1   
  2   2   3  1   
  3   2   4  1   
  4   4   5  1   
  5   4   6  1   
  6   4   7  1   
  7   7   8  1   
  8   7   9  1   
  9   7  10  1   
 10  10  11  1   
 11  10  12  1   
 12  10  13  1   
 13  13  14  1   
 14  13  15  1   
 15  15  16  1   
 16  15  17  1   
 17  15  18  1   
 18  18  19  1   
 19  18  20  1   
 20  18  21  1   
 21  21  22  1   
 22  21  23  1   
 23  21  24  1   
 24  24  25  1   
 25  24  26  1   
 26  24  27  1   
 27  27  28  1   
 28  27  29  1   
 29  29  30  1   
 30  29  31  1   
 31  29  32  1   
 32  32  33  1   
 33  32  34  1   
 34  32  35  1   
 35  35  36  1   
 36  35  37  1   
 37  35  38  1   
@<TRIPOS>SUBSTRUCTURE
  1 ****  18 GROUP 4 **** **** 0

# MOE 2022.02 (io_trps.svl 2020.11)

@<TRIPOS>MOLECULE
FOD066
8 8 1 0 0 
SMALL
USER_CHARGES


@<TRIPOS>ATOM
  1 H        1.5880     1.9970     0.0130 H     1 <1>   0.1500 
  2 C        0.5790     1.6050     0.0080 C.2   1 <1>   0.3660 
  3 N        0.2930     0.2690     0.0130 N.2   1 <1>  -0.5650 
  4 C       -1.0190     0.2510     0.0040 C.2   1 <1>   0.0370 
  5 H       -1.6570    -0.6210     0.0040 H     1 <1>   0.1500 
  6 N       -1.4910     1.5250    -0.0050 N.pl3 1 <1>   0.3000 
  7 H       -2.4490     1.8570    -0.0130 H     1 <1>   0.2700 
  8 N       -0.4840     2.4140    -0.0030 N.2   1 <1>  -0.7070 
@<TRIPOS>BOND
  1   1   2  1   
  2   2   3  1   
  3   2   8  2   
  4   3   4  2   
  5   4   5  1   
  6   4   6  1   
  7   6   7  1   
  8   6   8  1   
@<TRIPOS>SUBSTRUCTURE
  1 ****   2 GROUP 4 **** **** 0

# MOE 2022.02 (io_trps.svl 2020.11)

@<TRIPOS>MOLECULE
FOD067
12 12 1 0 0 
SMALL
USER_CHARGES


@<TRIPOS>ATOM
  1 H        0.2250     3.3980     0.0060 H     1 <1>   0.1500 
  2 C       -0.0930     2.3720    -0.0040 C.2   1 <1>  -0.1360 
  3 C       -1.3130     1.8590    -0.1800 C.2   1 <1>  -0.2880 
  4 H       -2.1950     2.4660    -0.3440 H     1 <1>   0.1500 
  5 C       -1.3740     0.3660    -0.1320 C.3   1 <1>   0.1380 
  6 H       -1.7540    -0.0380    -1.0750 H     1 <1>   0.0000 
  7 H       -2.0350     0.0290     0.6740 H     1 <1>   0.0000 
  8 C        0.0630    -0.0790     0.1160 C.3   1 <1>   0.0610 
  9 H        0.4440    -0.6860    -0.7100 H     1 <1>   0.0000 
 10 H        0.1600    -0.6170     1.0630 H     1 <1>   0.0000 
 11 C        0.8040     1.2240     0.1840 C.2   1 <1>   0.4950 
 12 O        2.0040     1.3460     0.3710 O.2   1 <1>  -0.5700 
@<TRIPOS>BOND
  1   1   2  1   
  2   2   3  2   
  3   2  11  1   
  4   3   4  1   
  5   3   5  1   
  6   5   6  1   
  7   5   7  1   
  8   5   8  1   
  9   8   9  1   
 10   8  10  1   
 11   8  11  1   
 12  11  12  2   
@<TRIPOS>SUBSTRUCTURE
  1 ****  11 GROUP 4 **** **** 0

# MOE 2022.02 (io_trps.svl 2020.11)

@<TRIPOS>MOLECULE
FOD068
13 12 1 0 0 
SMALL
USER_CHARGES


@<TRIPOS>ATOM
  1 H        5.8430    -0.6390     0.4420 H     1 <1>   0.1500 
  2 C        4.8990    -1.1720     0.5060 C.2   1 <1>  -0.3000 
  3 H        4.8290    -1.9820     1.2250 H     1 <1>   0.1500 
  4 C        3.8640    -0.8250    -0.2710 C.2   1 <1>  -0.2880 
  5 H        3.9910    -0.0040    -0.9750 H     1 <1>   0.1500 
  6 C        2.5280    -1.5000    -0.2560 C.3   1 <1>   0.3680 
  7 H        2.3050    -1.8810    -1.2580 H     1 <1>   0.0000 
  8 H        2.5140    -2.3400     0.4460 H     1 <1>   0.0000 
  9 S        1.2590    -0.2950     0.2280 S.3   1 <1>  -0.4600 
 10 C       -0.1830    -1.3810     0.1520 C.3   1 <1>   0.2300 
 11 H       -1.0780    -0.8110     0.4160 H     1 <1>   0.0000 
 12 H       -0.0760    -2.2060     0.8600 H     1 <1>   0.0000 
 13 H       -0.3100    -1.7760    -0.8590 H     1 <1>   0.0000 
@<TRIPOS>BOND
  1   1   2  1   
  2   2   3  1   
  3   2   4  2   
  4   4   5  1   
  5   4   6  1   
  6   6   7  1   
  7   6   8  1   
  8   6   9  1   
  9   9  10  1   
 10  10  11  1   
 11  10  12  1   
 12  10  13  1   
@<TRIPOS>SUBSTRUCTURE
  1 ****   6 GROUP 4 **** **** 0

# MOE 2022.02 (io_trps.svl 2020.11)

@<TRIPOS>MOLECULE
FOD069
5 4 1 0 0 
SMALL
USER_CHARGES


@<TRIPOS>ATOM
  1 H       -1.0750     0.1350     0.0010 H     1 <1>   0.1800 
  2 S       -0.2100    -0.8880     0.0010 S.3   1 <1>  -0.3210 
  3 C        1.2590     0.0780     0.0000 C.2   1 <1>   0.4610 
  4 H        1.1580     1.1760     0.0000 H     1 <1>   0.0600 
  5 S        2.7760    -0.6300     0.0000 S.2   1 <1>  -0.3800 
@<TRIPOS>BOND
  1   1   2  1   
  2   2   3  1   
  3   3   4  1   
  4   3   5  2   
@<TRIPOS>SUBSTRUCTURE
  1 ****   3 GROUP 4 **** **** 0

# MOE 2022.02 (io_trps.svl 2020.11)

@<TRIPOS>MOLECULE
FOD070
22 22 1 0 0 
SMALL
USER_CHARGES


@<TRIPOS>ATOM
  1 H       -0.8670     1.9660    -0.1100 H     1 <1>   0.1500 
  2 C       -1.3620     1.0250     0.1180 C.2   1 <1>  -0.2880 
  3 C       -0.6230    -0.1000     0.2540 C.2   1 <1>  -0.2760 
  4 C        0.8930    -0.1380     0.1060 C.3   1 <1>   0.1380 
  5 H        1.3130    -0.5100     1.0500 H     1 <1>   0.0000 
  6 H        1.1380    -0.8800    -0.6650 H     1 <1>   0.0000 
  7 C        1.6040     1.1730    -0.2510 C.3   1 <1>   0.0000 
  8 H        1.2250     1.5620    -1.2030 H     1 <1>   0.0000 
  9 H        1.4120     1.9290     0.5190 H     1 <1>   0.0000 
 10 C        3.1080     0.9710    -0.3700 C.3   1 <1>   0.0000 
 11 H        3.5320     0.6120     0.5730 H     1 <1>   0.0000 
 12 H        3.3460     0.2440    -1.1540 H     1 <1>   0.0000 
 13 H        3.5980     1.9170    -0.6250 H     1 <1>   0.0000 
 14 C       -1.2310    -1.4590     0.5570 C.3   1 <1>   0.3680 
 15 H       -0.4560    -2.1460     0.9170 H     1 <1>   0.0000 
 16 H       -1.9710    -1.4000     1.3630 H     1 <1>   0.0000 
 17 S       -1.9530    -2.1850    -0.9500 S.3   1 <1>  -0.2300 
 18 S       -3.8650    -1.4410    -0.8720 S.3   1 <1>   0.0000 
 19 S       -3.6550     0.5570    -1.2960 S.3   1 <1>  -0.2300 
 20 C       -2.8570     1.1560     0.2240 C.3   1 <1>   0.3680 
 21 H       -3.2530     0.6570     1.1140 H     1 <1>   0.0000 
 22 H       -3.1050     2.2180     0.3330 H     1 <1>   0.0000 
@<TRIPOS>BOND
  1   1   2  1   
  2   2   3  2   
  3   2  20  1   
  4   3   4  1   
  5   3  14  1   
  6   4   5  1   
  7   4   6  1   
  8   4   7  1   
  9   7   8  1   
 10   7   9  1   
 11   7  10  1   
 12  10  11  1   
 13  10  12  1   
 14  10  13  1   
 15  14  15  1   
 16  14  16  1   
 17  14  17  1   
 18  17  18  1   
 19  18  19  1   
 20  19  20  1   
 21  20  21  1   
 22  20  22  1   
@<TRIPOS>SUBSTRUCTURE
  1 ****   3 GROUP 4 **** **** 0

# MOE 2022.02 (io_trps.svl 2020.11)

@<TRIPOS>MOLECULE
FOD071
16 15 1 0 0 
SMALL
USER_CHARGES


@<TRIPOS>ATOM
  1 H        0.1510    -2.1430     0.0810 H     1 <1>   0.3700 
  2 N        0.1860    -1.2730     0.6020 N.am  1 <1>  -0.8000 
  3 H       -0.6570    -0.8860     1.0020 H     1 <1>   0.3700 
  4 C        1.3800    -0.6270     0.7690 C.2   1 <1>   0.6300 
  5 O        1.5090     0.4060     1.4030 O.2   1 <1>  -0.5700 
  6 C        2.5720    -1.3200     0.1020 C.2   1 <1>   0.5090 
  7 O        2.4280    -2.4800    -0.2790 O.2   1 <1>  -0.5700 
  8 C        3.8750    -0.5180     0.0380 C.3   1 <1>   0.3310 
  9 H        4.1690    -0.2720     1.0640 H     1 <1>   0.0000 
 10 N        4.9460    -1.3380    -0.5680 N.3   1 <1>  -0.9900 
 11 H        4.9170    -2.2770    -0.1670 H     1 <1>   0.3600 
 12 H        5.8560    -0.9420    -0.3370 H     1 <1>   0.3600 
 13 C        3.7260     0.7440    -0.8030 C.3   1 <1>   0.0000 
 14 H        4.6800     1.2760    -0.8900 H     1 <1>   0.0000 
 15 H        3.0080     1.4410    -0.3610 H     1 <1>   0.0000 
 16 H        3.3710     0.5100    -1.8130 H     1 <1>   0.0000 
@<TRIPOS>BOND
  1   1   2  1   
  2   2   3  1   
  3   2   4  am  
  4   4   5  2   
  5   4   6  1   
  6   6   7  2   
  7   6   8  1   
  8   8   9  1   
  9   8  10  1   
 10   8  13  1   
 11  10  11  1   
 12  10  12  1   
 13  13  14  1   
 14  13  15  1   
 15  13  16  1   
@<TRIPOS>SUBSTRUCTURE
  1 ****   6 GROUP 4 **** **** 0

# MOE 2022.02 (io_trps.svl 2020.11)

@<TRIPOS>MOLECULE
FOD072
26 27 1 0 0 
SMALL
USER_CHARGES


@<TRIPOS>ATOM
  1 H       -1.8160    -1.8560    -0.9650 H     1 <1>   0.0600 
  2 C       -2.3340    -1.1740    -0.2650 C.2   1 <1>   0.3040 
  3 N       -1.6770    -0.3170     0.4530 N.2   1 <1>  -0.6290 
  4 C       -0.2880    -0.3130     0.2860 C.ar  1 <1>   0.1790 
  5 C        0.5210    -1.1300     1.0810 C.ar  1 <1>  -0.1500 
  6 H        0.0610    -1.7770     1.8240 H     1 <1>   0.1500 
  7 C        1.9100    -1.1120     0.9320 C.ar  1 <1>  -0.1500 
  8 H        2.5220    -1.7560     1.5600 H     1 <1>   0.1500 
  9 C        2.5010    -0.2650    -0.0110 C.ar  1 <1>   0.0730 
 10 C        3.9270    -0.2410    -0.1640 C.1   1 <1>   0.4840 
 11 N        5.0800    -0.2240    -0.2890 N.1   1 <1>  -0.5570 
 12 C        1.6970     0.5640    -0.7990 C.ar  1 <1>  -0.1500 
 13 H        2.1400     1.2360    -1.5310 H     1 <1>   0.1500 
 14 C        0.3070     0.5410    -0.6450 C.ar  1 <1>  -0.1500 
 15 H       -0.3180     1.1960    -1.2470 H     1 <1>   0.1500 
 16 C       -3.8030    -1.2900    -0.1940 C.ar  1 <1>   0.0860 
 17 C       -4.4440    -2.2370    -0.9980 C.ar  1 <1>  -0.1500 
 18 H       -3.8770    -2.8790    -1.6670 H     1 <1>   0.1500 
 19 C       -5.8340    -2.3630    -0.9450 C.ar  1 <1>  -0.1500 
 20 H       -6.3380    -3.0970    -1.5680 H     1 <1>   0.1500 
 21 C       -6.5770    -1.5460    -0.0920 C.ar  1 <1>  -0.1500 
 22 H       -7.6590    -1.6460    -0.0510 H     1 <1>   0.1500 
 23 C       -5.9350    -0.6020     0.7100 C.ar  1 <1>  -0.1500 
 24 H       -6.5150     0.0340     1.3750 H     1 <1>   0.1500 
 25 C       -4.5470    -0.4720     0.6600 C.ar  1 <1>  -0.1500 
 26 H       -4.0510     0.2660     1.2870 H     1 <1>   0.1500 
@<TRIPOS>BOND
  1   1   2  1   
  2   2   3  2   
  3   2  16  1   
  4   3   4  1   
  5   4   5  ar  
  6   4  14  ar  
  7   5   6  1   
  8   5   7  ar  
  9   7   8  1   
 10   7   9  ar  
 11   9  10  1   
 12   9  12  ar  
 13  10  11  3   
 14  12  13  1   
 15  12  14  ar  
 16  14  15  1   
 17  16  17  ar  
 18  16  25  ar  
 19  17  18  1   
 20  17  19  ar  
 21  19  20  1   
 22  19  21  ar  
 23  21  22  1   
 24  21  23  ar  
 25  23  24  1   
 26  23  25  ar  
 27  25  26  1   
@<TRIPOS>SUBSTRUCTURE
  1 ****   3 GROUP 4 **** **** 0

# MOE 2022.02 (io_trps.svl 2020.11)

@<TRIPOS>MOLECULE
FOD073
18 18 1 0 0 
SMALL
USER_CHARGES


@<TRIPOS>ATOM
  1 H        2.4080    -3.2510    -0.1790 H     1 <1>   0.4000 
  2 N        1.7540    -2.4710    -0.0590 N.2   1 <1>  -0.8500 
  3 C        2.3560    -1.3300     0.0020 C.2   1 <1>   0.4360 
  4 C        3.8260    -1.1840    -0.0910 C.2   1 <1>  -0.1360 
  5 H        4.3770    -2.1110    -0.2270 H     1 <1>   0.1500 
  6 C        4.4840    -0.0140    -0.0160 C.2   1 <1>  -0.1240 
  7 C        5.9800     0.1230    -0.1090 C.3   1 <1>   0.4180 
  8 H        6.3830     0.5520     0.8140 H     1 <1>   0.0000 
  9 H        6.2540     0.7610    -0.9560 H     1 <1>   0.0000 
 10 O        6.5890    -1.1490    -0.3040 O.3   1 <1>  -0.6800 
 11 H        7.5490    -0.9920    -0.3580 H     1 <1>   0.4000 
 12 C        3.7830     1.2880     0.1720 C.2   1 <1>   0.5560 
 13 O        4.4020     2.3380     0.2520 O.2   1 <1>  -0.5700 
 14 C        2.2750     1.2590     0.2610 C.2   1 <1>   0.4500 
 15 N        1.5940     2.3600     0.4070 N.2   1 <1>  -0.8500 
 16 H        0.5890     2.1190     0.4460 H     1 <1>   0.4000 
 17 C        1.5570    -0.0550     0.1790 C.2   1 <1>   0.5700 
 18 O        0.3380    -0.0500     0.2560 O.2   1 <1>  -0.5700 
@<TRIPOS>BOND
  1   1   2  1   
  2   2   3  2   
  3   3   4  1   
  4   3  17  1   
  5   4   5  1   
  6   4   6  2   
  7   6   7  1   
  8   6  12  1   
  9   7   8  1   
 10   7   9  1   
 11   7  10  1   
 12  10  11  1   
 13  12  13  2   
 14  12  14  1   
 15  14  15  2   
 16  14  17  1   
 17  15  16  1   
 18  17  18  2   
@<TRIPOS>SUBSTRUCTURE
  1 ****   6 GROUP 4 **** **** 0

# MOE 2022.02 (io_trps.svl 2020.11)

@<TRIPOS>MOLECULE
FOD074
34 33 1 0 0 
SMALL
USER_CHARGES


@<TRIPOS>ATOM
  1 H       -0.2040    -3.3360     0.0800 H     1 <1>   0.5000 
  2 O       -0.1670    -2.5270     0.6280 O.3   1 <1>  -0.6840 
  3 S        0.8950    -1.5200    -0.0430 S.o2  1 <1>   1.6670 
  4 O        0.6520    -1.5760    -1.4660 O.2   1 <1>  -0.6500 
  5 O        0.8700    -0.2800     0.6970 O.2   1 <1>  -0.6500 
  6 O        2.3020    -2.2750     0.2470 O.3   1 <1>  -0.4640 
  7 C        3.4930    -1.5760    -0.0810 C.3   1 <1>   0.2800 
  8 H        3.4720    -1.2880    -1.1380 H     1 <1>   0.0000 
  9 H        3.5660    -0.6710     0.5320 H     1 <1>   0.0000 
 10 C        4.6770    -2.4950     0.1920 C.3   1 <1>   0.0000 
 11 H        4.6530    -2.8160     1.2410 H     1 <1>   0.0000 
 12 H        4.5710    -3.4100    -0.4040 H     1 <1>   0.0000 
 13 C        6.0080    -1.8130    -0.1210 C.3   1 <1>   0.0000 
 14 H        6.0240    -1.5040    -1.1740 H     1 <1>   0.0000 
 15 H        6.1060    -0.9040     0.4840 H     1 <1>   0.0000 
 16 C        7.1870    -2.7460     0.1590 C.3   1 <1>   0.0000 
 17 H        7.1640    -3.0620     1.2080 H     1 <1>   0.0000 
 18 H        7.0930    -3.6510    -0.4540 H     1 <1>   0.0000 
 19 C        8.5220    -2.0620    -0.1400 C.3   1 <1>   0.0000 
 20 H        8.6170    -1.1580     0.4740 H     1 <1>   0.0000 
 21 H        8.5470    -1.7450    -1.1890 H     1 <1>   0.0000 
 22 C        9.7000    -2.9980     0.1400 C.3   1 <1>   0.0000 
 23 H        9.6060    -3.9000    -0.4760 H     1 <1>   0.0000 
 24 H        9.6730    -3.3180     1.1890 H     1 <1>   0.0000 
 25 C       11.0370    -2.3140    -0.1510 C.3   1 <1>   0.0000 
 26 H       11.1300    -1.4120     0.4650 H     1 <1>   0.0000 
 27 H       11.0650    -1.9940    -1.2000 H     1 <1>   0.0000 
 28 C       12.2110    -3.2510     0.1300 C.3   1 <1>   0.0000 
 29 H       12.1270    -4.1500    -0.4910 H     1 <1>   0.0000 
 30 H       12.1870    -3.5760     1.1760 H     1 <1>   0.0000 
 31 C       13.5430    -2.5740    -0.1500 C.3   1 <1>   0.0000 
 32 H       14.3690    -3.2630     0.0560 H     1 <1>   0.0000 
 33 H       13.6740    -1.6900     0.4810 H     1 <1>   0.0000 
 34 H       13.6130    -2.2630    -1.1970 H     1 <1>   0.0000 
@<TRIPOS>BOND
  1   1   2  1   
  2   2   3  1   
  3   3   4  2   
  4   3   5  2   
  5   3   6  1   
  6   6   7  1   
  7   7   8  1   
  8   7   9  1   
  9   7  10  1   
 10  10  11  1   
 11  10  12  1   
 12  10  13  1   
 13  13  14  1   
 14  13  15  1   
 15  13  16  1   
 16  16  17  1   
 17  16  18  1   
 18  16  19  1   
 19  19  20  1   
 20  19  21  1   
 21  19  22  1   
 22  22  23  1   
 23  22  24  1   
 24  22  25  1   
 25  25  26  1   
 26  25  27  1   
 27  25  28  1   
 28  28  29  1   
 29  28  30  1   
 30  28  31  1   
 31  31  32  1   
 32  31  33  1   
 33  31  34  1   
@<TRIPOS>SUBSTRUCTURE
  1 ****  13 GROUP 4 **** **** 0

# MOE 2022.02 (io_trps.svl 2020.11)

@<TRIPOS>MOLECULE
FOD075
21 21 1 0 0 
SMALL
USER_CHARGES


@<TRIPOS>ATOM
  1 H       -0.9160     4.5540     0.3580 H     1 <1>   0.3600 
  2 N       -0.9210     3.5710     0.6300 N.3   1 <1>  -0.9000 
  3 C       -2.1290     2.9240     0.0880 C.3   1 <1>   0.2700 
  4 H       -3.0110     3.3720     0.5600 H     1 <1>   0.0000 
  5 H       -2.1870     3.1340    -0.9880 H     1 <1>   0.0000 
  6 C       -2.1200     1.4010     0.3290 C.3   1 <1>   0.2800 
  7 H       -2.1240     1.1860     1.4060 H     1 <1>   0.0000 
  8 C       -3.3370     0.7420    -0.3050 C.3   1 <1>   0.0000 
  9 H       -4.2670     1.1430     0.1090 H     1 <1>   0.0000 
 10 H       -3.3420     0.8890    -1.3900 H     1 <1>   0.0000 
 11 H       -3.3170    -0.3400    -0.1350 H     1 <1>   0.0000 
 12 O       -0.9480     0.8040    -0.2530 O.3   1 <1>  -0.5600 
 13 C        0.2410     1.3840     0.3110 C.3   1 <1>   0.2800 
 14 H        0.2590     1.1690     1.3870 H     1 <1>   0.0000 
 15 C        1.4390     0.7070    -0.3420 C.3   1 <1>   0.0000 
 16 H        1.4060    -0.3740    -0.1680 H     1 <1>   0.0000 
 17 H        1.4280     0.8510    -1.4280 H     1 <1>   0.0000 
 18 H        2.3810     1.0960     0.0550 H     1 <1>   0.0000 
 19 C        0.2690     2.9070     0.0690 C.3   1 <1>   0.2700 
 20 H        0.3130     3.1160    -1.0070 H     1 <1>   0.0000 
 21 H        1.1640     3.3410     0.5270 H     1 <1>   0.0000 
@<TRIPOS>BOND
  1   1   2  1   
  2   2   3  1   
  3   2  19  1   
  4   3   4  1   
  5   3   5  1   
  6   3   6  1   
  7   6   7  1   
  8   6   8  1   
  9   6  12  1   
 10   8   9  1   
 11   8  10  1   
 12   8  11  1   
 13  12  13  1   
 14  13  14  1   
 15  13  15  1   
 16  13  19  1   
 17  15  16  1   
 18  15  17  1   
 19  15  18  1   
 20  19  20  1   
 21  19  21  1   
@<TRIPOS>SUBSTRUCTURE
  1 ****  12 GROUP 4 **** **** 0

# MOE 2022.02 (io_trps.svl 2020.11)

@<TRIPOS>MOLECULE
FOD076
21 21 1 0 0 
SMALL
USER_CHARGES


@<TRIPOS>ATOM
  1 H       -0.9910    -4.5180    -0.5060 H     1 <1>   0.5000 
  2 O       -0.0690    -4.1920    -0.5560 O.3   1 <1>  -0.6500 
  3 C       -0.1450    -2.9240    -0.0950 C.2   1 <1>   0.6590 
  4 O       -1.2290    -2.4460     0.2000 O.2   1 <1>  -0.5700 
  5 C        1.2100    -2.2140    -0.0720 C.3   1 <1>   0.3070 
  6 H        1.4720    -2.0650    -1.1260 H     1 <1>   0.0000 
  7 N        2.1810    -3.0730     0.6320 N.2   1 <1>  -0.6960 
  8 C        3.4340    -2.9030     0.3510 C.2   1 <1>   0.3890 
  9 C        4.4020    -3.8170     1.0680 C.2   1 <1>   0.5100 
 10 H        3.9630    -4.3800     1.9080 H     1 <1>   0.0600 
 11 O        5.5670    -3.9110     0.7200 O.2   1 <1>  -0.5700 
 12 C        4.0250    -1.9170    -0.6270 C.3   1 <1>   0.2910 
 13 H        3.6420    -2.1420    -1.6280 H     1 <1>   0.0000 
 14 H        5.1110    -2.0230    -0.6820 H     1 <1>   0.0000 
 15 S        3.6880    -0.1610    -0.2500 S.3   1 <1>  -0.4600 
 16 C        2.4360    -0.2550     1.0700 C.3   1 <1>   0.2300 
 17 H        2.8640    -0.7820     1.9300 H     1 <1>   0.0000 
 18 H        2.2520     0.7700     1.4120 H     1 <1>   0.0000 
 19 C        1.1040    -0.8720     0.6530 C.3   1 <1>   0.0000 
 20 H        0.4940    -0.9800     1.5600 H     1 <1>   0.0000 
 21 H        0.5570    -0.1670     0.0140 H     1 <1>   0.0000 
@<TRIPOS>BOND
  1   1   2  1   
  2   2   3  1   
  3   3   4  2   
  4   3   5  1   
  5   5   6  1   
  6   5   7  1   
  7   5  19  1   
  8   7   8  2   
  9   8   9  1   
 10   8  12  1   
 11   9  10  1   
 12   9  11  2   
 13  12  13  1   
 14  12  14  1   
 15  12  15  1   
 16  15  16  1   
 17  16  17  1   
 18  16  18  1   
 19  16  19  1   
 20  19  20  1   
 21  19  21  1   
@<TRIPOS>SUBSTRUCTURE
  1 ****   7 GROUP 4 **** **** 0

# MOE 2022.02 (io_trps.svl 2020.11)

@<TRIPOS>MOLECULE
FOD077
26 26 1 0 0 
SMALL
USER_CHARGES


@<TRIPOS>ATOM
  1 H        9.4410    -3.4260    -0.7920 H     1 <1>   0.0600 
  2 C        9.3920    -2.6390    -0.0200 C.2   1 <1>   0.4490 
  3 O       10.3000    -2.4990     0.7920 O.2   1 <1>  -0.5700 
  4 C        8.1840    -1.7420    -0.0720 C.3   1 <1>   0.0610 
  5 H        8.2380    -1.0320     0.7610 H     1 <1>   0.0000 
  6 H        8.2240    -1.1780    -1.0090 H     1 <1>   0.0000 
  7 C        6.9080    -2.5720     0.0070 C.3   1 <1>   0.0000 
  8 H        6.8700    -3.2720    -0.8370 H     1 <1>   0.0000 
  9 H        6.9220    -3.1820     0.9190 H     1 <1>   0.0000 
 10 C        5.6640    -1.6820    -0.0020 C.3   1 <1>   0.0000 
 11 H        5.6570    -1.0800    -0.9190 H     1 <1>   0.0000 
 12 H        5.7120    -0.9860     0.8450 H     1 <1>   0.0000 
 13 C        4.3830    -2.5190     0.0840 C.3   1 <1>   0.1440 
 14 H        4.4180    -3.1150     1.0050 H     1 <1>   0.0000 
 15 H        4.3700    -3.2210    -0.7600 H     1 <1>   0.0000 
 16 C        3.0720    -1.7640     0.0740 C.ar  1 <1>  -0.1440 
 17 C        2.9750    -0.3670     0.0170 C.ar  1 <1>  -0.1500 
 18 H        3.8620     0.2590    -0.0250 H     1 <1>   0.1500 
 19 C        1.7270     0.2630     0.0140 C.ar  1 <1>  -0.1500 
 20 H        1.6690     1.3470    -0.0300 H     1 <1>   0.1500 
 21 C        0.5590    -0.4930     0.0690 C.ar  1 <1>  -0.1500 
 22 H       -0.4090    -0.0010     0.0670 H     1 <1>   0.1500 
 23 C        0.6370    -1.8810     0.1270 C.ar  1 <1>  -0.1500 
 24 H       -0.2720    -2.4760     0.1700 H     1 <1>   0.1500 
 25 C        1.8830    -2.5110     0.1290 C.ar  1 <1>  -0.1500 
 26 H        1.9230    -3.5970     0.1760 H     1 <1>   0.1500 
@<TRIPOS>BOND
  1   1   2  1   
  2   2   3  2   
  3   2   4  1   
  4   4   5  1   
  5   4   6  1   
  6   4   7  1   
  7   7   8  1   
  8   7   9  1   
  9   7  10  1   
 10  10  11  1   
 11  10  12  1   
 12  10  13  1   
 13  13  14  1   
 14  13  15  1   
 15  13  16  1   
 16  16  17  ar  
 17  16  25  ar  
 18  17  18  1   
 19  17  19  ar  
 20  19  20  1   
 21  19  21  ar  
 22  21  22  1   
 23  21  23  ar  
 24  23  24  1   
 25  23  25  ar  
 26  25  26  1   
@<TRIPOS>SUBSTRUCTURE
  1 ****  13 GROUP 4 **** **** 0

# MOE 2022.02 (io_trps.svl 2020.11)

@<TRIPOS>MOLECULE
FOD078
22 21 1 0 0 
SMALL
USER_CHARGES


@<TRIPOS>ATOM
  1 H        0.1900    -0.5610     1.8020 H     1 <1>   0.5000 
  2 O        0.6400    -1.1270     1.1400 O.3   1 <1>  -0.6500 
  3 C        1.9140    -1.2060     1.5610 C.2   1 <1>   0.6590 
  4 O        2.2860    -0.6230     2.5660 O.2   1 <1>  -0.5700 
  5 C        2.7830    -2.0430     0.6620 C.3   1 <1>   0.0610 
  6 H        3.3350    -2.7400     1.3050 H     1 <1>   0.0000 
  7 H        2.1340    -2.6760     0.0420 H     1 <1>   0.0000 
  8 C        3.7430    -1.2220    -0.2310 C.3   1 <1>   0.0000 
  9 C        4.5940    -2.2130    -1.0530 C.3   1 <1>   0.0000 
 10 H        3.9620    -2.8400    -1.6930 H     1 <1>   0.0000 
 11 H        5.1700    -2.8830    -0.4050 H     1 <1>   0.0000 
 12 H        5.3020    -1.6850    -1.7020 H     1 <1>   0.0000 
 13 C        2.9280    -0.3660    -1.2220 C.3   1 <1>   0.0000 
 14 H        3.5860     0.1590    -1.9240 H     1 <1>   0.0000 
 15 H        2.3320     0.3930    -0.7040 H     1 <1>   0.0000 
 16 H        2.2420    -0.9850    -1.8110 H     1 <1>   0.0000 
 17 C        4.6750    -0.2800     0.5670 C.3   1 <1>   0.0610 
 18 H        5.3790     0.2180    -0.1120 H     1 <1>   0.0000 
 19 H        4.1110     0.5210     1.0590 H     1 <1>   0.0000 
 20 C        5.4870    -0.9760     1.6330 C.2   1 <1>   0.4490 
 21 H        4.9430    -1.2550     2.5510 H     1 <1>   0.0600 
 22 O        6.6750    -1.2540     1.4970 O.2   1 <1>  -0.5700 
@<TRIPOS>BOND
  1   1   2  1   
  2   2   3  1   
  3   3   4  2   
  4   3   5  1   
  5   5   6  1   
  6   5   7  1   
  7   5   8  1   
  8   8   9  1   
  9   8  13  1   
 10   8  17  1   
 11   9  10  1   
 12   9  11  1   
 13   9  12  1   
 14  13  14  1   
 15  13  15  1   
 16  13  16  1   
 17  17  18  1   
 18  17  19  1   
 19  17  20  1   
 20  20  21  1   
 21  20  22  2   
@<TRIPOS>SUBSTRUCTURE
  1 ****   8 GROUP 4 **** **** 0

# MOE 2022.02 (io_trps.svl 2020.11)

@<TRIPOS>MOLECULE
FOD079
11 10 1 0 0 
SMALL
USER_CHARGES


@<TRIPOS>ATOM
  1 H        0.1810    -0.8290     1.3910 H     1 <1>   0.0000 
  2 C        0.1190     0.0100     0.6950 C.3   1 <1>   0.1050 
  3 H        0.1820     0.9610     1.2270 H     1 <1>   0.0000 
  4 H       -0.8140    -0.0410     0.1290 H     1 <1>   0.0000 
  5 S        1.4690    -0.0960    -0.4530 S.o2  1 <1>   1.0900 
  6 O        1.4410    -1.4170    -1.0510 O.2   1 <1>  -0.6500 
  7 O        1.4470     1.0980    -1.2760 O.2   1 <1>  -0.6500 
  8 C        2.8980    -0.0060     0.5980 C.3   1 <1>   0.1050 
  9 H        2.8770    -0.8470     1.2940 H     1 <1>   0.0000 
 10 H        3.7880    -0.0630    -0.0310 H     1 <1>   0.0000 
 11 H        2.8800     0.9430     1.1360 H     1 <1>   0.0000 
@<TRIPOS>BOND
  1   1   2  1   
  2   2   3  1   
  3   2   4  1   
  4   2   5  1   
  5   5   6  2   
  6   5   7  2   
  7   5   8  1   
  8   8   9  1   
  9   8  10  1   
 10   8  11  1   
@<TRIPOS>SUBSTRUCTURE
  1 ****   5 GROUP 4 **** **** 0

# MOE 2022.02 (io_trps.svl 2020.11)

@<TRIPOS>MOLECULE
FOD080
25 26 1 0 0 
SMALL
USER_CHARGES


@<TRIPOS>ATOM
  1 H        2.4080     2.5330     0.6880 H     1 <1>   0.1500 
  2 C        1.3490     2.6020     0.4600 C.ar  1 <1>   0.1600 
  3 N        1.0550     2.9510    -0.8100 N.ar  1 <1>  -0.6200 
  4 C       -0.2560     3.0470    -1.1280 C.ar  1 <1>   0.1600 
  5 H       -0.4430     3.3310    -2.1600 H     1 <1>   0.1500 
  6 C       -1.3010     2.8110    -0.2370 C.ar  1 <1>  -0.1440 
  7 C       -2.7300     2.9330    -0.6930 C.3   1 <1>   0.4440 
  8 H       -2.7660     3.3290    -1.7170 H     1 <1>   0.0000 
  9 N       -3.5610     3.8210     0.0980 N.am  1 <1>  -0.6600 
 10 C       -3.1200     5.1100     0.5880 C.3   1 <1>   0.3000 
 11 H       -2.3460     4.9700     1.3470 H     1 <1>   0.0000 
 12 H       -2.7200     5.6890    -0.2490 H     1 <1>   0.0000 
 13 H       -3.9550     5.6560     1.0360 H     1 <1>   0.0000 
 14 C       -4.8430     3.3260     0.2770 C.2   1 <1>   0.5690 
 15 O       -5.7580     3.8600     0.8810 O.2   1 <1>  -0.5700 
 16 C       -4.9440     2.0230    -0.4740 C.3   1 <1>   0.0610 
 17 H       -5.4210     2.2090    -1.4420 H     1 <1>   0.0000 
 18 H       -5.5180     1.2850     0.0930 H     1 <1>   0.0000 
 19 C       -3.4890     1.6060    -0.6400 C.3   1 <1>   0.0000 
 20 H       -3.3260     0.9950    -1.5330 H     1 <1>   0.0000 
 21 H       -3.1940     0.9990     0.2260 H     1 <1>   0.0000 
 22 C       -0.9500     2.4490     1.0690 C.ar  1 <1>  -0.1500 
 23 H       -1.7180     2.2580     1.8150 H     1 <1>   0.1500 
 24 C        0.3920     2.3440     1.4260 C.ar  1 <1>  -0.1500 
 25 H        0.6830     2.0680     2.4330 H     1 <1>   0.1500 
@<TRIPOS>BOND
  1   1   2  1   
  2   2   3  ar  
  3   2  24  ar  
  4   3   4  ar  
  5   4   5  1   
  6   4   6  ar  
  7   6   7  1   
  8   6  22  ar  
  9   7   8  1   
 10   7   9  1   
 11   7  19  1   
 12   9  10  1   
 13   9  14  am  
 14  10  11  1   
 15  10  12  1   
 16  10  13  1   
 17  14  15  2   
 18  14  16  1   
 19  16  17  1   
 20  16  18  1   
 21  16  19  1   
 22  19  20  1   
 23  19  21  1   
 24  22  23  1   
 25  22  24  ar  
 26  24  25  1   
@<TRIPOS>SUBSTRUCTURE
  1 ****   6 GROUP 4 **** **** 0

# MOE 2022.02 (io_trps.svl 2020.11)

@<TRIPOS>MOLECULE
FOD081
24 25 1 0 0 
SMALL
USER_CHARGES


@<TRIPOS>ATOM
  1 H        6.4970    -3.2100    -1.1630 H     1 <1>   0.0000 
  2 C        5.6420    -3.0910    -0.4900 C.3   1 <1>   0.0000 
  3 H        5.0790    -4.0290    -0.5010 H     1 <1>   0.0000 
  4 H        6.0300    -2.9340     0.5220 H     1 <1>   0.0000 
  5 C        4.7890    -1.9110    -0.9360 C.3   1 <1>   0.0000 
  6 H        4.4240    -2.0980    -1.9530 H     1 <1>   0.0000 
  7 H        5.4400    -1.0310    -0.9870 H     1 <1>   0.0000 
  8 C        3.6080    -1.6310     0.0080 C.3   1 <1>   0.0000 
  9 H        3.9690    -1.6420     1.0450 H     1 <1>   0.0000 
 10 C        2.9690    -0.2480    -0.3060 C.3   1 <1>   0.2800 
 11 H        2.9780    -0.0600    -1.3880 H     1 <1>   0.0000 
 12 C        3.6860     0.8940     0.4000 C.3   1 <1>   0.0000 
 13 H        4.7370     0.9590     0.1040 H     1 <1>   0.0000 
 14 H        3.6340     0.7740     1.4880 H     1 <1>   0.0000 
 15 H        3.2010     1.8480     0.1690 H     1 <1>   0.0000 
 16 O        1.5930    -0.2250     0.1080 O.3   1 <1>  -0.5380 
 17 C        0.9230    -1.4900    -0.0790 C.3   1 <1>   0.5160 
 18 H       -0.1580    -1.3790    -0.1940 H     1 <1>   0.0000 
 19 O        1.5330    -2.2880    -1.1590 O.3   1 <1>  -0.5160 
 20 C        2.5140    -2.7050    -0.1380 C.3   1 <1>   0.2580 
 21 H        2.8500    -3.7350    -0.2840 H     1 <1>   0.0000 
 22 C        1.3820    -2.5770     0.9090 C.3   1 <1>   0.0000 
 23 H        1.6760    -2.2380     1.9050 H     1 <1>   0.0000 
 24 H        0.7160    -3.4420     0.9840 H     1 <1>   0.0000 
@<TRIPOS>BOND
  1   1   2  1   
  2   2   3  1   
  3   2   4  1   
  4   2   5  1   
  5   5   6  1   
  6   5   7  1   
  7   5   8  1   
  8   8   9  1   
  9   8  10  1   
 10   8  20  1   
 11  10  11  1   
 12  10  12  1   
 13  10  16  1   
 14  12  13  1   
 15  12  14  1   
 16  12  15  1   
 17  16  17  1   
 18  17  18  1   
 19  17  19  1   
 20  17  22  1   
 21  19  20  1   
 22  20  21  1   
 23  20  22  1   
 24  22  23  1   
 25  22  24  1   
@<TRIPOS>SUBSTRUCTURE
  1 ****   8 GROUP 4 **** **** 0

# MOE 2022.02 (io_trps.svl 2020.11)

@<TRIPOS>MOLECULE
FOD082
5 4 1 0 0 
SMALL
USER_CHARGES


@<TRIPOS>ATOM
  1 H       -0.2930    -0.9400    -0.0040 H     1 <1>   0.4000 
  2 N        0.0980     0.0100    -0.0050 N.2   1 <1>  -0.8500 
  3 C        1.3830    -0.0410    -0.0060 C.2   1 <1>   0.3300 
  4 H        1.9270    -1.0000    -0.0060 H     1 <1>   0.0600 
  5 H        1.9820     0.8830    -0.0070 H     1 <1>   0.0600 
@<TRIPOS>BOND
  1   1   2  1   
  2   2   3  2   
  3   3   4  1   
  4   3   5  1   
@<TRIPOS>SUBSTRUCTURE
  1 ****   3 GROUP 4 **** **** 0

# MOE 2022.02 (io_trps.svl 2020.11)

@<TRIPOS>MOLECULE
FOD083
26 26 1 0 0 
SMALL
USER_CHARGES


@<TRIPOS>ATOM
  1 H        9.0890     2.8070    -0.0790 H     1 <1>   0.0000 
  2 C        8.1340     2.2750    -0.0700 C.3   1 <1>   0.0000 
  3 H        8.1220     1.5850     0.7800 H     1 <1>   0.0000 
  4 H        8.0600     1.6640    -0.9760 H     1 <1>   0.0000 
  5 C        6.9730     3.2470     0.0140 C.3   1 <1>   0.2800 
  6 H        7.0520     3.8360     0.9350 H     1 <1>   0.0000 
  7 H        6.9860     3.9140    -0.8550 H     1 <1>   0.0000 
  8 O        5.7580     2.4900     0.0250 O.3   1 <1>  -0.4300 
  9 C        4.6260     3.2440     0.1040 C.2   1 <1>   0.7800 
 10 O        4.6290     4.4680     0.1560 O.2   1 <1>  -0.5700 
 11 N        3.4790     2.4700     0.1080 N.am  1 <1>  -0.6600 
 12 C        3.5150     1.0090     0.0960 C.3   1 <1>   0.3000 
 13 H        4.3670     0.6550     0.6850 H     1 <1>   0.0000 
 14 H        3.6800     0.6980    -0.9430 H     1 <1>   0.0000 
 15 C        2.2270     0.4010     0.6360 C.3   1 <1>   0.0000 
 16 H        2.2760    -0.6930     0.5980 H     1 <1>   0.0000 
 17 H        2.1230     0.6740     1.6950 H     1 <1>   0.0000 
 18 C        0.9940     0.8930    -0.1220 C.3   1 <1>   0.0000 
 19 H        0.1250     0.8390     0.5450 H     1 <1>   0.0000 
 20 H        0.7780     0.2190    -0.9590 H     1 <1>   0.0000 
 21 C        1.1460     2.3160    -0.6620 C.3   1 <1>   0.0000 
 22 H        0.1750     2.8240    -0.6520 H     1 <1>   0.0000 
 23 H        1.4610     2.2620    -1.7120 H     1 <1>   0.0000 
 24 C        2.1760     3.1230     0.1200 C.3   1 <1>   0.3000 
 25 H        2.2550     4.1320    -0.2970 H     1 <1>   0.0000 
 26 H        1.8700     3.2250     1.1680 H     1 <1>   0.0000 
@<TRIPOS>BOND
  1   1   2  1   
  2   2   3  1   
  3   2   4  1   
  4   2   5  1   
  5   5   6  1   
  6   5   7  1   
  7   5   8  1   
  8   8   9  1   
  9   9  10  2   
 10   9  11  am  
 11  11  12  1   
 12  11  24  1   
 13  12  13  1   
 14  12  14  1   
 15  12  15  1   
 16  15  16  1   
 17  15  17  1   
 18  15  18  1   
 19  18  19  1   
 20  18  20  1   
 21  18  21  1   
 22  21  22  1   
 23  21  23  1   
 24  21  24  1   
 25  24  25  1   
 26  24  26  1   
@<TRIPOS>SUBSTRUCTURE
  1 ****  11 GROUP 4 **** **** 0

# MOE 2022.02 (io_trps.svl 2020.11)

@<TRIPOS>MOLECULE
FOD084
29 31 1 0 0 
SMALL
USER_CHARGES


@<TRIPOS>ATOM
  1 H       -5.7870     1.1190     1.4990 H     1 <1>   0.1500 
  2 C       -5.1750     1.7700     0.8790 C.ar  1 <1>  -0.1500 
  3 C       -5.7890     2.7890     0.1510 C.ar  1 <1>   0.1900 
  4 F       -7.1180     2.9360     0.2380 F     1 <1>  -0.1900 
  5 C       -5.0670     3.6590    -0.6640 C.ar  1 <1>  -0.1500 
  6 H       -5.5460     4.4470    -1.2280 H     1 <1>   0.1500 
  7 C       -3.6940     3.4430    -0.7020 C.ar  1 <1>   0.1400 
  8 O       -2.7910     4.1580    -1.4230 O.3   1 <1>  -0.0190 
  9 N       -1.5210     3.6490    -1.2110 N.2   1 <1>  -0.4100 
 10 C       -1.6720     2.6270    -0.3540 C.2   1 <1>   0.1080 
 11 C       -0.4880     1.8290     0.1020 C.3   1 <1>   0.1810 
 12 H       -0.8220     1.1930     0.9350 H     1 <1>   0.0000 
 13 C        0.0360     0.8920    -1.0040 C.3   1 <1>   0.0000 
 14 H       -0.4970    -0.0650    -0.9290 H     1 <1>   0.0000 
 15 H       -0.1880     1.2830    -2.0050 H     1 <1>   0.0000 
 16 C        1.5440     0.6540    -0.9100 C.3   1 <1>   0.2700 
 17 H        1.7900    -0.2830    -1.4240 H     1 <1>   0.0000 
 18 H        2.0960     1.4480    -1.4270 H     1 <1>   0.0000 
 19 N        1.9620     0.5700     0.4830 N.3   1 <1>  -0.9000 
 20 H        2.9380     0.2790     0.5420 H     1 <1>   0.3600 
 21 C        1.7890     1.8420     1.1890 C.3   1 <1>   0.2700 
 22 H        1.6080     1.6160     2.2460 H     1 <1>   0.0000 
 23 H        2.7200     2.4210     1.1460 H     1 <1>   0.0000 
 24 C        0.6460     2.7060     0.6480 C.3   1 <1>   0.0000 
 25 H        0.2790     3.3680     1.4430 H     1 <1>   0.0000 
 26 H        1.0310     3.3580    -0.1470 H     1 <1>   0.0000 
 27 C       -3.0360     2.4480     0.0010 C.ar  1 <1>   0.0000 
 28 C       -3.7870     1.5820     0.8160 C.ar  1 <1>  -0.1500 
 29 H       -3.3120     0.7870     1.3840 H     1 <1>   0.1500 
@<TRIPOS>BOND
  1   1   2  1   
  2   2   3  ar  
  3   2  28  ar  
  4   3   4  1   
  5   3   5  ar  
  6   5   6  1   
  7   5   7  ar  
  8   7   8  1   
  9   7  27  ar  
 10   8   9  1   
 11   9  10  2   
 12  10  11  1   
 13  10  27  1   
 14  11  12  1   
 15  11  13  1   
 16  11  24  1   
 17  13  14  1   
 18  13  15  1   
 19  13  16  1   
 20  16  17  1   
 21  16  18  1   
 22  16  19  1   
 23  19  20  1   
 24  19  21  1   
 25  21  22  1   
 26  21  23  1   
 27  21  24  1   
 28  24  25  1   
 29  24  26  1   
 30  27  28  ar  
 31  28  29  1   
@<TRIPOS>SUBSTRUCTURE
  1 ****  10 GROUP 4 **** **** 0

# MOE 2022.02 (io_trps.svl 2020.11)

@<TRIPOS>MOLECULE
FOD085
28 28 1 0 0 
SMALL
USER_CHARGES


@<TRIPOS>ATOM
  1 H        4.6620     0.9180    -0.1770 H     1 <1>   0.0600 
  2 C        4.3350     1.8630    -0.6410 C.2   1 <1>   0.4490 
  3 O        5.1030     2.8150    -0.7450 O.2   1 <1>  -0.5700 
  4 C        2.9030     1.9160    -1.1140 C.3   1 <1>   0.0610 
  5 H        2.8070     2.7990    -1.7600 H     1 <1>   0.0000 
  6 H        2.7380     1.0430    -1.7560 H     1 <1>   0.0000 
  7 C        1.8580     1.9720     0.0330 C.3   1 <1>   0.0000 
  8 C        2.2460     3.0340     1.1100 C.3   1 <1>   0.2700 
  9 H        1.4170     3.1510     1.8190 H     1 <1>   0.0000 
 10 H        3.0960     2.6750     1.7020 H     1 <1>   0.0000 
 11 N        2.5850     4.3580     0.6040 N.3   1 <1>  -0.9900 
 12 H        3.4840     4.3300     0.1150 H     1 <1>   0.3600 
 13 H        1.9000     4.6870    -0.0720 H     1 <1>   0.3600 
 14 C        1.7690     0.5910     0.7550 C.3   1 <1>   0.0000 
 15 H        2.7510     0.1080     0.8000 H     1 <1>   0.0000 
 16 H        1.4600     0.7310     1.8000 H     1 <1>   0.0000 
 17 C        0.7700    -0.3570     0.0980 C.3   1 <1>   0.0000 
 18 H        0.7960    -1.3350     0.5900 H     1 <1>   0.0000 
 19 H        1.0570    -0.5280    -0.9470 H     1 <1>   0.0000 
 20 C       -0.6520     0.2020     0.1540 C.3   1 <1>   0.0000 
 21 H       -1.2190    -0.1920    -0.6980 H     1 <1>   0.0000 
 22 H       -1.1610    -0.1620     1.0550 H     1 <1>   0.0000 
 23 C       -0.6990     1.7300     0.1480 C.3   1 <1>   0.0000 
 24 H       -0.6940     2.1030     1.1790 H     1 <1>   0.0000 
 25 H       -1.6430     2.0630    -0.2970 H     1 <1>   0.0000 
 26 C        0.4810     2.3220    -0.6170 C.3   1 <1>   0.0000 
 27 H        0.3470     3.4050    -0.7030 H     1 <1>   0.0000 
 28 H        0.4410     1.9360    -1.6450 H     1 <1>   0.0000 
@<TRIPOS>BOND
  1   1   2  1   
  2   2   3  2   
  3   2   4  1   
  4   4   5  1   
  5   4   6  1   
  6   4   7  1   
  7   7   8  1   
  8   7  14  1   
  9   7  26  1   
 10   8   9  1   
 11   8  10  1   
 12   8  11  1   
 13  11  12  1   
 14  11  13  1   
 15  14  15  1   
 16  14  16  1   
 17  14  17  1   
 18  17  18  1   
 19  17  19  1   
 20  17  20  1   
 21  20  21  1   
 22  20  22  1   
 23  20  23  1   
 24  23  24  1   
 25  23  25  1   
 26  23  26  1   
 27  26  27  1   
 28  26  28  1   
@<TRIPOS>SUBSTRUCTURE
  1 ****   7 GROUP 4 **** **** 0

# MOE 2022.02 (io_trps.svl 2020.11)

@<TRIPOS>MOLECULE
FOD086
38 37 1 0 0 
SMALL
USER_CHARGES


@<TRIPOS>ATOM
  1 H        9.8600     8.9390    -0.4270 H     1 <1>   0.5000 
  2 O        9.1110     8.6260     0.1210 O.3   1 <1>  -0.6500 
  3 C        8.7130     7.4910    -0.4840 C.2   1 <1>   0.6590 
  4 O        9.2710     7.0890    -1.4910 O.2   1 <1>  -0.5700 
  5 C        7.5420     6.8480     0.1990 C.3   1 <1>   0.0610 
  6 H        7.5530     5.7790    -0.0440 H     1 <1>   0.0000 
  7 H        7.6770     6.9240     1.2850 H     1 <1>   0.0000 
  8 C        6.2370     7.4950    -0.2470 C.3   1 <1>   0.0000 
  9 H        6.2510     8.5650    -0.0040 H     1 <1>   0.0000 
 10 H        6.1450     7.4250    -1.3390 H     1 <1>   0.0000 
 11 C        5.0310     6.8310     0.4170 C.3   1 <1>   0.0000 
 12 H        5.1260     6.9050     1.5070 H     1 <1>   0.0000 
 13 H        5.0160     5.7630     0.1670 H     1 <1>   0.0000 
 14 C        3.7200     7.4790    -0.0280 C.3   1 <1>   0.0000 
 15 H        3.7330     8.5470     0.2250 H     1 <1>   0.0000 
 16 H        3.6240     7.4060    -1.1180 H     1 <1>   0.0000 
 17 C        2.5160     6.8100     0.6380 C.3   1 <1>   0.0000 
 18 H        2.5010     5.7440     0.3820 H     1 <1>   0.0000 
 19 H        2.6140     6.8800     1.7290 H     1 <1>   0.0000 
 20 C        1.2030     7.4610     0.2010 C.3   1 <1>   0.0000 
 21 H        1.2220     8.5290     0.4520 H     1 <1>   0.0000 
 22 H        1.1050     7.3890    -0.8900 H     1 <1>   0.0000 
 23 C        0.0010     6.7920     0.8710 C.3   1 <1>   0.1380 
 24 H       -0.0060     5.7210     0.6440 H     1 <1>   0.0000 
 25 H        0.0940     6.8700     1.9610 H     1 <1>   0.0000 
 26 C       -1.2860     7.4550     0.4630 C.2   1 <1>  -0.2880 
 27 H       -1.4270     8.4410     0.9060 H     1 <1>   0.1500 
 28 C       -2.2290     6.9300    -0.3460 C.2   1 <1>   0.0660 
 29 N       -3.4290     7.7490    -0.6070 N.pl3 1 <1>   0.8360 
 30 O       -4.2980     7.2670    -1.3450 O.2   1 <1>  -0.5200 
 31 O       -3.5070     8.8670    -0.0790 O.2   1 <1>  -0.5200 
 32 C       -2.1890     5.6110    -1.0660 C.3   1 <1>   0.1380 
 33 H       -2.5760     5.7020    -2.0880 H     1 <1>   0.0000 
 34 H       -1.1500     5.2870    -1.1980 H     1 <1>   0.0000 
 35 C       -2.9410     4.5160    -0.3190 C.3   1 <1>   0.0000 
 36 H       -2.5220     4.3620     0.6810 H     1 <1>   0.0000 
 37 H       -4.0030     4.7570    -0.2100 H     1 <1>   0.0000 
 38 H       -2.8660     3.5700    -0.8650 H     1 <1>   0.0000 
@<TRIPOS>BOND
  1   1   2  1   
  2   2   3  1   
  3   3   4  2   
  4   3   5  1   
  5   5   6  1   
  6   5   7  1   
  7   5   8  1   
  8   8   9  1   
  9   8  10  1   
 10   8  11  1   
 11  11  12  1   
 12  11  13  1   
 13  11  14  1   
 14  14  15  1   
 15  14  16  1   
 16  14  17  1   
 17  17  18  1   
 18  17  19  1   
 19  17  20  1   
 20  20  21  1   
 21  20  22  1   
 22  20  23  1   
 23  23  24  1   
 24  23  25  1   
 25  23  26  1   
 26  26  27  1   
 27  26  28  2   
 28  28  29  1   
 29  28  32  1   
 30  29  30  2   
 31  29  31  2   
 32  32  33  1   
 33  32  34  1   
 34  32  35  1   
 35  35  36  1   
 36  35  37  1   
 37  35  38  1   
@<TRIPOS>SUBSTRUCTURE
  1 ****  20 GROUP 4 **** **** 0

# MOE 2022.02 (io_trps.svl 2020.11)

@<TRIPOS>MOLECULE
FOD087
11 11 1 0 0 
SMALL
USER_CHARGES


@<TRIPOS>ATOM
  1 H       -2.5680     0.6010    -0.3540 H     1 <1>   0.1500 
  2 C       -1.5830     1.0440    -0.3740 C.2   1 <1>   0.1390 
  3 N       -1.4180     2.2250    -0.9740 N.2   1 <1>  -0.4100 
  4 O       -0.0710     2.5210    -0.8350 O.3   1 <1>  -0.0190 
  5 C        0.5440     1.5140    -0.1550 C.2   1 <1>  -0.0400 
  6 C        1.9900     1.6720     0.0800 C.3   1 <1>   0.1800 
  7 H        2.3850     0.8370     0.6660 H     1 <1>   0.0000 
  8 H        2.5310     1.7080    -0.8710 H     1 <1>   0.0000 
  9 H        2.1920     2.5980     0.6270 H     1 <1>   0.0000 
 10 C       -0.3800     0.5490     0.1600 C.2   1 <1>  -0.1500 
 11 H       -0.2100    -0.3730     0.6940 H     1 <1>   0.1500 
@<TRIPOS>BOND
  1   1   2  1   
  2   2   3  2   
  3   2  10  1   
  4   3   4  1   
  5   4   5  1   
  6   5   6  1   
  7   5  10  2   
  8   6   7  1   
  9   6   8  1   
 10   6   9  1   
 11  10  11  1   
@<TRIPOS>SUBSTRUCTURE
  1 ****   5 GROUP 4 **** **** 0

# MOE 2022.02 (io_trps.svl 2020.11)

@<TRIPOS>MOLECULE
FOD088
14 13 1 0 0 
SMALL
USER_CHARGES


@<TRIPOS>ATOM
  1 H        0.1790    -1.1630    -0.3210 H     1 <1>   0.0600 
  2 C        0.2010    -0.0610    -0.3830 C.2   1 <1>   0.4490 
  3 O       -0.6590     0.5470    -1.0150 O.2   1 <1>  -0.5700 
  4 C        1.3440     0.6120     0.3740 C.3   1 <1>   0.3310 
  5 H        1.2650     0.2830     1.4170 H     1 <1>   0.0000 
  6 N        1.1710     2.0790     0.3250 N.3   1 <1>  -0.9900 
  7 H        1.0900     2.3650    -0.6560 H     1 <1>   0.3600 
  8 H        0.2500     2.3070     0.7090 H     1 <1>   0.3600 
  9 C        2.6670     0.1390    -0.2450 C.3   1 <1>   0.2300 
 10 H        2.7590     0.5240    -1.2690 H     1 <1>   0.0000 
 11 H        2.6660    -0.9570    -0.3060 H     1 <1>   0.0000 
 12 S        4.0970     0.6800     0.7550 S.3   1 <1>  -0.0370 
 13 N        5.1190    -0.0620    -0.2220 N.2   1 <1>  -0.0310 
 14 O        6.3300    -0.0330     0.0170 O.2   1 <1>  -0.1620 
@<TRIPOS>BOND
  1   1   2  1   
  2   2   3  2   
  3   2   4  1   
  4   4   5  1   
  5   4   6  1   
  6   4   9  1   
  7   6   7  1   
  8   6   8  1   
  9   9  10  1   
 10   9  11  1   
 11   9  12  1   
 12  12  13  1   
 13  13  14  2   
@<TRIPOS>SUBSTRUCTURE
  1 ****   9 GROUP 4 **** **** 0

# MOE 2022.02 (io_trps.svl 2020.11)

@<TRIPOS>MOLECULE
FOD089
16 16 1 0 0 
SMALL
USER_CHARGES


@<TRIPOS>ATOM
  1 H       -0.5130     0.4500     0.0020 H     1 <1>   0.4000 
  2 N        0.2750    -0.1990     0.0000 N.2   1 <1>  -0.8500 
  3 C        1.3970     0.4570     0.0010 C.2   1 <1>   0.4860 
  4 C        2.7140    -0.2970    -0.0020 C.2   1 <1>   0.1140 
  5 N        2.6190    -1.6660    -0.0050 N.pl3 1 <1>  -0.9000 
  6 H        1.6730    -2.0400    -0.0050 H     1 <1>   0.4000 
  7 H        3.4330    -2.2550    -0.0060 H     1 <1>   0.4000 
  8 C        3.8360     0.4810    -0.0010 C.2   1 <1>   0.2710 
  9 N        5.0720    -0.1100    -0.0020 N.pl3 1 <1>  -0.9000 
 10 H        5.1690    -1.1110    -0.0040 H     1 <1>   0.4000 
 11 H        5.8670     0.5120    -0.0020 H     1 <1>   0.4000 
 12 N        3.8260     1.8690     0.0020 N.2   1 <1>  -0.6210 
 13 C        2.6730     2.4530     0.0040 C.2   1 <1>   0.4400 
 14 H        2.5960     3.5520     0.0050 H     1 <1>   0.0600 
 15 N        1.4720     1.8170     0.0030 N.pl3 1 <1>  -0.5000 
 16 H        0.6250     2.3600     0.0050 H     1 <1>   0.4000 
@<TRIPOS>BOND
  1   1   2  1   
  2   2   3  2   
  3   3   4  1   
  4   3  15  1   
  5   4   5  1   
  6   4   8  2   
  7   5   6  1   
  8   5   7  1   
  9   8   9  1   
 10   8  12  1   
 11   9  10  1   
 12   9  11  1   
 13  12  13  2   
 14  13  14  1   
 15  13  15  1   
 16  15  16  1   
@<TRIPOS>SUBSTRUCTURE
  1 ****   4 GROUP 4 **** **** 0

# MOE 2022.02 (io_trps.svl 2020.11)

@<TRIPOS>MOLECULE
FOD090
33 34 1 0 0 
SMALL
USER_CHARGES


@<TRIPOS>ATOM
  1 H       10.6060    -3.0290     1.7610 H     1 <1>   0.0600 
  2 C       10.6670    -2.9400     0.6620 C.2   1 <1>   0.4490 
  3 O       11.6110    -3.4200     0.0430 O.2   1 <1>  -0.5700 
  4 C        9.5590    -2.1660     0.0010 C.3   1 <1>   0.0610 
  5 H        9.6130    -1.1320     0.3570 H     1 <1>   0.0000 
  6 H        9.7250    -2.1670    -1.0810 H     1 <1>   0.0000 
  7 C        8.2100    -2.7880     0.3420 C.3   1 <1>   0.0000 
  8 H        8.0610    -2.7720     1.4290 H     1 <1>   0.0000 
  9 H        8.2040    -3.8430     0.0400 H     1 <1>   0.0000 
 10 C        7.0670    -2.0440    -0.3500 C.3   1 <1>   0.0000 
 11 H        7.2040    -2.0900    -1.4370 H     1 <1>   0.0000 
 12 H        7.1090    -0.9910    -0.0590 H     1 <1>   0.0000 
 13 C        5.7100    -2.6430     0.0260 C.3   1 <1>   0.0000 
 14 H        5.7450    -3.7240    -0.1630 H     1 <1>   0.0000 
 15 H        5.5500    -2.5310     1.1040 H     1 <1>   0.0000 
 16 C        4.5430    -2.0550    -0.7710 C.3   1 <1>   0.1050 
 17 H        4.7070    -2.2050    -1.8440 H     1 <1>   0.0000 
 18 C        4.1320    -0.6210    -0.4890 C.3   1 <1>   0.3000 
 19 H        3.4660    -0.3030    -1.3090 H     1 <1>   0.0000 
 20 N        4.9940     0.4980    -0.3060 N.am  1 <1>  -0.7300 
 21 H        5.8620     0.7280    -0.7740 H     1 <1>   0.3700 
 22 C        4.3900     1.3900     0.5880 C.2   1 <1>   0.6900 
 23 O        4.7580     2.5230     0.8280 O.2   1 <1>  -0.5700 
 24 N        3.2860     0.7390     1.1510 N.am  1 <1>  -0.7300 
 25 H        2.6320     1.2260     1.7530 H     1 <1>   0.3700 
 26 C        3.3500    -0.6470     0.8210 C.3   1 <1>   0.3000 
 27 H        3.9350    -1.1030     1.6320 H     1 <1>   0.0000 
 28 C        2.1530    -1.5090     0.5210 C.3   1 <1>   0.1050 
 29 H        1.4420    -1.0330    -0.1600 H     1 <1>   0.0000 
 30 H        1.6440    -1.8730     1.4150 H     1 <1>   0.0000 
 31 S        2.9520    -2.8940    -0.3420 S.o2  1 <1>   1.0900 
 32 O        2.2250    -3.1480    -1.5680 O.2   1 <1>  -0.6500 
 33 O        3.1990    -3.9400     0.6280 O.2   1 <1>  -0.6500 
@<TRIPOS>BOND
  1   1   2  1   
  2   2   3  2   
  3   2   4  1   
  4   4   5  1   
  5   4   6  1   
  6   4   7  1   
  7   7   8  1   
  8   7   9  1   
  9   7  10  1   
 10  10  11  1   
 11  10  12  1   
 12  10  13  1   
 13  13  14  1   
 14  13  15  1   
 15  13  16  1   
 16  16  17  1   
 17  16  18  1   
 18  16  31  1   
 19  18  19  1   
 20  18  20  1   
 21  18  26  1   
 22  20  21  1   
 23  20  22  am  
 24  22  23  2   
 25  22  24  am  
 26  24  25  1   
 27  24  26  1   
 28  26  27  1   
 29  26  28  1   
 30  28  29  1   
 31  28  30  1   
 32  28  31  1   
 33  31  32  2   
 34  31  33  2   
@<TRIPOS>SUBSTRUCTURE
  1 ****  13 GROUP 4 **** **** 0

# MOE 2022.02 (io_trps.svl 2020.11)

@<TRIPOS>MOLECULE
FOD091
23 22 1 0 0 
SMALL
USER_CHARGES


@<TRIPOS>ATOM
  1 H       -0.9320    -2.7880    -0.0820 H     1 <1>   0.5000 
  2 O       -0.2330    -2.1010    -0.0920 O.3   1 <1>  -0.6500 
  3 C        0.9080    -2.7920     0.0590 C.2   1 <1>   0.7060 
  4 O        0.8990    -4.0060     0.1640 O.2   1 <1>  -0.5700 
  5 C        2.1040    -1.9180     0.0550 C.2   1 <1>  -0.1240 
  6 C        3.2760    -2.5700    -0.0690 C.2   1 <1>  -0.1360 
  7 H        3.2880    -3.6560    -0.1430 H     1 <1>   0.1500 
  8 C        4.6080    -1.9210    -0.1520 C.2   1 <1>   0.6970 
  9 O        4.7860    -0.7200    -0.2800 O.2   1 <1>  -0.5700 
 10 S        5.9330    -3.0720    -0.0890 S.3   1 <1>  -0.3710 
 11 C        7.3330    -1.9100    -0.1060 C.3   1 <1>   0.2300 
 12 H        7.2580    -1.2450     0.7610 H     1 <1>   0.0000 
 13 H        7.2820    -1.3010    -1.0160 H     1 <1>   0.0000 
 14 C        8.6550    -2.6810    -0.0670 C.3   1 <1>   0.2700 
 15 H        8.7130    -3.2890     0.8430 H     1 <1>   0.0000 
 16 H        8.7330    -3.3560    -0.9270 H     1 <1>   0.0000 
 17 N        9.8010    -1.7700    -0.0830 N.3   1 <1>  -0.9900 
 18 H       10.6630    -2.3160    -0.0790 H     1 <1>   0.3600 
 19 H        9.8070    -1.2380    -0.9530 H     1 <1>   0.3600 
 20 C        1.8930    -0.4430     0.2130 C.3   1 <1>   0.1380 
 21 H        2.7670     0.0740     0.6130 H     1 <1>   0.0000 
 22 H        1.6290     0.0090    -0.7490 H     1 <1>   0.0000 
 23 H        1.0850    -0.2360     0.9240 H     1 <1>   0.0000 
@<TRIPOS>BOND
  1   1   2  1   
  2   2   3  1   
  3   3   4  2   
  4   3   5  1   
  5   5   6  2   
  6   5  20  1   
  7   6   7  1   
  8   6   8  1   
  9   8   9  2   
 10   8  10  1   
 11  10  11  1   
 12  11  12  1   
 13  11  13  1   
 14  11  14  1   
 15  14  15  1   
 16  14  16  1   
 17  14  17  1   
 18  17  18  1   
 19  17  19  1   
 20  20  21  1   
 21  20  22  1   
 22  20  23  1   
@<TRIPOS>SUBSTRUCTURE
  1 ****   8 GROUP 4 **** **** 0

# MOE 2022.02 (io_trps.svl 2020.11)

@<TRIPOS>MOLECULE
FOD092
38 38 1 0 0 
SMALL
USER_CHARGES


@<TRIPOS>ATOM
  1 H        9.2170    -0.6610     1.1850 H     1 <1>   0.1500 
  2 C        8.9320    -0.0050     0.3630 C.2   1 <1>  -0.2880 
  3 C        9.8080     0.9410    -0.0310 C.2   1 <1>  -0.2760 
  4 C        9.5880     1.9210    -1.1500 C.3   1 <1>   0.1380 
  5 H       10.4060     1.8520    -1.8760 H     1 <1>   0.0000 
  6 H        8.6590     1.7550    -1.7000 H     1 <1>   0.0000 
  7 H        9.5630     2.9420    -0.7560 H     1 <1>   0.0000 
  8 C       11.1380     1.0870     0.6630 C.3   1 <1>   0.1380 
  9 H       11.2650     0.3650     1.4760 H     1 <1>   0.0000 
 10 H       11.9560     0.9320    -0.0490 H     1 <1>   0.0000 
 11 H       11.2330     2.0900     1.0910 H     1 <1>   0.0000 
 12 C        7.5640    -0.3010    -0.1790 C.3   1 <1>   0.4180 
 13 H        7.6000    -1.2760    -0.6790 H     1 <1>   0.0000 
 14 H        7.2260     0.4660    -0.8810 H     1 <1>   0.0000 
 15 O        6.6710    -0.3560     0.9340 O.3   1 <1>  -0.3630 
 16 C        5.3620    -0.6530     0.6670 C.ar  1 <1>   0.0820 
 17 C        4.5280    -0.6680     1.7860 C.ar  1 <1>  -0.1500 
 18 H        4.9440    -0.4540     2.7680 H     1 <1>   0.1500 
 19 C        3.1660    -0.9530     1.6600 C.ar  1 <1>  -0.1500 
 20 H        2.5430    -0.9540     2.5510 H     1 <1>   0.1500 
 21 C        2.6130    -1.2330     0.4030 C.ar  1 <1>  -0.1440 
 22 C        1.1220    -1.5010     0.2630 C.3   1 <1>   0.4240 
 23 H        0.7340    -1.7920     1.2480 H     1 <1>   0.0000 
 24 O        0.9720    -2.6150    -0.6300 O.3   1 <1>  -0.5600 
 25 C       -0.3480    -3.1370    -0.6750 C.3   1 <1>   0.2800 
 26 H       -0.7490    -3.2950     0.3300 H     1 <1>   0.0000 
 27 H       -1.0020    -2.4830    -1.2560 H     1 <1>   0.0000 
 28 H       -0.3110    -4.1040    -1.1850 H     1 <1>   0.0000 
 29 C        0.4080    -0.2180    -0.2450 C.3   1 <1>   0.2700 
 30 H        0.8650     0.6750     0.1990 H     1 <1>   0.0000 
 31 H        0.5170    -0.1410    -1.3330 H     1 <1>   0.0000 
 32 N       -1.0300    -0.1690     0.0730 N.3   1 <1>  -0.9900 
 33 H       -1.4190     0.6940    -0.3070 H     1 <1>   0.3600 
 34 H       -1.1500    -0.1100     1.0840 H     1 <1>   0.3600 
 35 C        3.4580    -1.2170    -0.7180 C.ar  1 <1>  -0.1500 
 36 H        3.0520    -1.4370    -1.7040 H     1 <1>   0.1500 
 37 C        4.8210    -0.9320    -0.5880 C.ar  1 <1>  -0.1500 
 38 H        5.4270    -0.9390    -1.4870 H     1 <1>   0.1500 
@<TRIPOS>BOND
  1   1   2  1   
  2   2   3  2   
  3   2  12  1   
  4   3   4  1   
  5   3   8  1   
  6   4   5  1   
  7   4   6  1   
  8   4   7  1   
  9   8   9  1   
 10   8  10  1   
 11   8  11  1   
 12  12  13  1   
 13  12  14  1   
 14  12  15  1   
 15  15  16  1   
 16  16  17  ar  
 17  16  37  ar  
 18  17  18  1   
 19  17  19  ar  
 20  19  20  1   
 21  19  21  ar  
 22  21  22  1   
 23  21  35  ar  
 24  22  23  1   
 25  22  24  1   
 26  22  29  1   
 27  24  25  1   
 28  25  26  1   
 29  25  27  1   
 30  25  28  1   
 31  29  30  1   
 32  29  31  1   
 33  29  32  1   
 34  32  33  1   
 35  32  34  1   
 36  35  36  1   
 37  35  37  ar  
 38  37  38  1   
@<TRIPOS>SUBSTRUCTURE
  1 ****  37 GROUP 4 **** **** 0

# MOE 2022.02 (io_trps.svl 2020.11)

@<TRIPOS>MOLECULE
FOD093
20 19 1 0 0 
SMALL
USER_CHARGES


@<TRIPOS>ATOM
  1 H       -0.8020     1.3250     0.1970 H     1 <1>   0.5000 
  2 O       -0.1160     2.0250     0.2380 O.3   1 <1>  -0.6500 
  3 C        1.0510     1.3690     0.0970 C.2   1 <1>   0.6590 
  4 O        1.0740     0.1560    -0.0280 O.2   1 <1>  -0.5700 
  5 C        2.2290     2.2950     0.1310 C.3   1 <1>   0.0610 
  6 H        2.2390     2.8090     1.0990 H     1 <1>   0.0000 
  7 H        2.1070     3.0400    -0.6640 H     1 <1>   0.0000 
  8 C        3.5170     1.5130    -0.0680 C.3   1 <1>   0.1940 
  9 H        3.6380     0.7560     0.7150 H     1 <1>   0.0000 
 10 H        3.5180     1.0070    -1.0400 H     1 <1>   0.0000 
 11 S        4.9540     2.6290     0.0050 S.o   1 <1>   0.1130 
 12 O        4.8650     3.5450    -1.1810 O.2   1 <1>  -0.5000 
 13 C        6.1950     1.3430    -0.3690 C.3   1 <1>   0.3320 
 14 H        6.1030     0.5540     0.3840 H     1 <1>   0.0000 
 15 H        5.9700     0.9200    -1.3530 H     1 <1>   0.0000 
 16 C        7.5710     1.9380    -0.3750 C.2   1 <1>  -0.2880 
 17 H        7.7440     2.7490    -1.0820 H     1 <1>   0.1500 
 18 C        8.5790     1.5340     0.4100 C.2   1 <1>  -0.3000 
 19 H        8.4630     0.7280     1.1270 H     1 <1>   0.1500 
 20 H        9.5520     2.0120     0.3470 H     1 <1>   0.1500 
@<TRIPOS>BOND
  1   1   2  1   
  2   2   3  1   
  3   3   4  2   
  4   3   5  1   
  5   5   6  1   
  6   5   7  1   
  7   5   8  1   
  8   8   9  1   
  9   8  10  1   
 10   8  11  1   
 11  11  12  2   
 12  11  13  1   
 13  13  14  1   
 14  13  15  1   
 15  13  16  1   
 16  16  17  1   
 17  16  18  2   
 18  18  19  1   
 19  18  20  1   
@<TRIPOS>SUBSTRUCTURE
  1 ****   8 GROUP 4 **** **** 0

# MOE 2022.02 (io_trps.svl 2020.11)

@<TRIPOS>MOLECULE
FOD094
25 24 1 0 0 
SMALL
USER_CHARGES


@<TRIPOS>ATOM
  1 H       14.5420     4.5230     0.6850 H     1 <1>   0.1500 
  2 C       14.1210     3.5230     0.7430 C.2   1 <1>  -0.3000 
  3 H       14.4040     2.9080     1.5920 H     1 <1>   0.1500 
  4 C       13.2790     3.0800    -0.2010 C.2   1 <1>  -0.2880 
  5 H       13.0300     3.7380    -1.0310 H     1 <1>   0.1500 
  6 C       12.6520     1.7180    -0.2080 C.3   1 <1>   0.3380 
  7 H       13.0110     1.1130     0.6330 H     1 <1>   0.0000 
  8 H       12.9450     1.1970    -1.1260 H     1 <1>   0.0000 
  9 C       11.1910     1.8410    -0.1440 C.1   1 <1>  -0.2000 
 10 C        9.9950     1.9340    -0.0910 C.1   1 <1>   0.0000 
 11 C        8.5690     2.0460    -0.0290 C.1   1 <1>   0.0000 
 12 C        7.3730     2.1380     0.0220 C.1   1 <1>  -0.2000 
 13 C        5.9090     2.2530     0.0830 C.3   1 <1>   0.2000 
 14 H        5.5560     2.8840    -0.7420 H     1 <1>   0.0000 
 15 H        5.6190     2.7600     1.0110 H     1 <1>   0.0000 
 16 C        5.2510     0.8810     0.0090 C.3   1 <1>   0.0610 
 17 H        5.5340     0.3790    -0.9240 H     1 <1>   0.0000 
 18 H        5.5720     0.2600     0.8540 H     1 <1>   0.0000 
 19 C        3.7490     0.9960     0.0490 C.2   1 <1>   0.6590 
 20 O        3.1220     2.0340     0.2010 O.2   1 <1>  -0.5700 
 21 O        3.1940    -0.2400    -0.1040 O.3   1 <1>  -0.4300 
 22 C        1.7660    -0.2450    -0.0830 C.3   1 <1>   0.2800 
 23 H        1.3680     0.3700    -0.8960 H     1 <1>   0.0000 
 24 H        1.3960     0.1040     0.8860 H     1 <1>   0.0000 
 25 H        1.4290    -1.2750    -0.2320 H     1 <1>   0.0000 
@<TRIPOS>BOND
  1   1   2  1   
  2   2   3  1   
  3   2   4  2   
  4   4   5  1   
  5   4   6  1   
  6   6   7  1   
  7   6   8  1   
  8   6   9  1   
  9   9  10  3   
 10  10  11  1   
 11  11  12  3   
 12  12  13  1   
 13  13  14  1   
 14  13  15  1   
 15  13  16  1   
 16  16  17  1   
 17  16  18  1   
 18  16  19  1   
 19  19  20  2   
 20  19  21  1   
 21  21  22  1   
 22  22  23  1   
 23  22  24  1   
 24  22  25  1   
@<TRIPOS>SUBSTRUCTURE
  1 ****  12 GROUP 4 **** **** 0

# MOE 2022.02 (io_trps.svl 2020.11)

@<TRIPOS>MOLECULE
FOD095
25 24 1 0 0 
SMALL
USER_CHARGES


@<TRIPOS>ATOM
  1 H        0.4330    -0.3430     1.1140 H     1 <1>   0.0600 
  2 C        0.7060    -0.8700     0.1830 C.2   1 <1>   0.4490 
  3 O        0.0480    -0.7100    -0.8410 O.2   1 <1>  -0.5700 
  4 C        1.8960    -1.7930     0.2780 C.3   1 <1>   0.1990 
  5 H        1.9900    -2.3450    -0.6630 H     1 <1>   0.0000 
  6 H        1.7130    -2.5180     1.0770 H     1 <1>   0.0000 
  7 C        3.1250    -0.9870     0.5790 C.2   1 <1>  -0.2880 
  8 H        3.1920    -0.5450     1.5710 H     1 <1>   0.1500 
  9 C        4.1330    -0.8120    -0.2930 C.2   1 <1>  -0.2880 
 10 H        4.0680    -1.2560    -1.2860 H     1 <1>   0.1500 
 11 C        5.3750    -0.0180    -0.0100 C.3   1 <1>   0.3380 
 12 H        5.3200     0.4660     0.9720 H     1 <1>   0.0000 
 13 H        5.4640     0.7800    -0.7560 H     1 <1>   0.0000 
 14 C        6.5480    -0.8960    -0.0680 C.1   1 <1>  -0.2000 
 15 C        7.5090    -1.6140    -0.1160 C.1   1 <1>   0.0000 
 16 C        8.6450    -2.4840    -0.1790 C.1   1 <1>   0.0000 
 17 C        9.5910    -3.2210    -0.2360 C.1   1 <1>  -0.2000 
 18 C       10.7380    -4.1330    -0.3070 C.3   1 <1>   0.3380 
 19 H       10.7170    -4.6880    -1.2520 H     1 <1>   0.0000 
 20 H       10.6770    -4.8710     0.5000 H     1 <1>   0.0000 
 21 C       12.0170    -3.3520    -0.2310 C.2   1 <1>  -0.2880 
 22 H       12.1980    -2.6320    -1.0270 H     1 <1>   0.1500 
 23 C       12.9380    -3.4970     0.7310 C.2   1 <1>  -0.3000 
 24 H       12.8090    -4.2020     1.5460 H     1 <1>   0.1500 
 25 H       13.8460    -2.9000     0.7240 H     1 <1>   0.1500 
@<TRIPOS>BOND
  1   1   2  1   
  2   2   3  2   
  3   2   4  1   
  4   4   5  1   
  5   4   6  1   
  6   4   7  1   
  7   7   8  1   
  8   7   9  2   
  9   9  10  1   
 10   9  11  1   
 11  11  12  1   
 12  11  13  1   
 13  11  14  1   
 14  14  15  3   
 15  15  16  1   
 16  16  17  3   
 17  17  18  1   
 18  18  19  1   
 19  18  20  1   
 20  18  21  1   
 21  21  22  1   
 22  21  23  2   
 23  23  24  1   
 24  23  25  1   
@<TRIPOS>SUBSTRUCTURE
  1 ****  14 GROUP 4 **** **** 0

# MOE 2022.02 (io_trps.svl 2020.11)

@<TRIPOS>MOLECULE
FOD096
21 21 1 0 0 
SMALL
USER_CHARGES


@<TRIPOS>ATOM
  1 H       -5.9240     3.7540     0.3510 H     1 <1>   0.1500 
  2 C       -4.8390     3.8000     0.3090 C.ar  1 <1>  -0.1500 
  3 C       -4.2000     5.0130     0.0630 C.ar  1 <1>  -0.1500 
  4 H       -4.7890     5.9150    -0.0840 H     1 <1>   0.1500 
  5 C       -2.8060     5.0720     0.0080 C.ar  1 <1>  -0.1500 
  6 H       -2.3280     6.0310    -0.1790 H     1 <1>   0.1500 
  7 C       -2.0350     3.9140     0.1880 C.ar  1 <1>  -0.1440 
  8 C       -0.5280     4.0010     0.1690 C.3   1 <1>   0.4240 
  9 H       -0.1760     4.1180     1.1990 H     1 <1>   0.0000 
 10 H       -0.2170     4.8590    -0.4380 H     1 <1>   0.0000 
 11 O        0.0280     2.8070    -0.4080 O.3   1 <1>  -0.4300 
 12 C        1.3650     2.6180    -0.4860 C.2   1 <1>   0.6590 
 13 O        1.8320     1.5760    -0.9350 O.2   1 <1>  -0.5700 
 14 C        2.2500     3.7310    -0.0030 C.3   1 <1>   0.0610 
 15 H        3.2950     3.4430    -0.1540 H     1 <1>   0.0000 
 16 H        2.0730     4.6410    -0.5810 H     1 <1>   0.0000 
 17 H        2.1050     3.9010     1.0660 H     1 <1>   0.0000 
 18 C       -2.6910     2.7020     0.4480 C.ar  1 <1>  -0.1500 
 19 H       -2.1180     1.7890     0.6050 H     1 <1>   0.1500 
 20 C       -4.0840     2.6450     0.5030 C.ar  1 <1>  -0.1500 
 21 H       -4.5800     1.6970     0.6970 H     1 <1>   0.1500 
@<TRIPOS>BOND
  1   1   2  1   
  2   2   3  ar  
  3   2  20  ar  
  4   3   4  1   
  5   3   5  ar  
  6   5   6  1   
  7   5   7  ar  
  8   7   8  1   
  9   7  18  ar  
 10   8   9  1   
 11   8  10  1   
 12   8  11  1   
 13  11  12  1   
 14  12  13  2   
 15  12  14  1   
 16  14  15  1   
 17  14  16  1   
 18  14  17  1   
 19  18  19  1   
 20  18  20  ar  
 21  20  21  1   
@<TRIPOS>SUBSTRUCTURE
  1 ****   7 GROUP 4 **** **** 0

# MOE 2022.02 (io_trps.svl 2020.11)

@<TRIPOS>MOLECULE
FOD097
23 23 1 0 0 
SMALL
USER_CHARGES


@<TRIPOS>ATOM
  1 H       -6.5500     3.9410     0.5810 H     1 <1>   0.1500 
  2 C       -5.5920     3.4750     0.3650 C.ar  1 <1>  -0.1500 
  3 C       -4.6780     4.1160    -0.4670 C.ar  1 <1>  -0.1500 
  4 H       -4.9190     5.0840    -0.8980 H     1 <1>   0.1500 
  5 C       -3.4460     3.5210    -0.7430 C.ar  1 <1>  -0.1500 
  6 H       -2.7350     4.0410    -1.3830 H     1 <1>   0.1500 
  7 C       -3.1160     2.2750    -0.1880 C.ar  1 <1>  -0.1440 
  8 C       -1.7850     1.6360    -0.4850 C.3   1 <1>   0.3370 
  9 H       -1.5800     1.6710    -1.5610 H     1 <1>   0.0000 
 10 H       -1.8010     0.5820    -0.1860 H     1 <1>   0.0000 
 11 S       -0.4150     2.4540     0.4010 S.o   1 <1>   0.1130 
 12 O       -0.0760     3.7170    -0.3370 O.2   1 <1>  -0.5000 
 13 C        0.8450     1.2170    -0.0480 C.3   1 <1>   0.1940 
 14 H        0.8980     1.1520    -1.1390 H     1 <1>   0.0000 
 15 H        0.5320     0.2480     0.3500 H     1 <1>   0.0000 
 16 C        2.1950     1.6010     0.5250 C.3   1 <1>   0.0000 
 17 H        2.1570     1.6750     1.6170 H     1 <1>   0.0000 
 18 H        2.9460     0.8480     0.2630 H     1 <1>   0.0000 
 19 H        2.5340     2.5660     0.1350 H     1 <1>   0.0000 
 20 C       -4.0430     1.6420     0.6520 C.ar  1 <1>  -0.1500 
 21 H       -3.8150     0.6780     1.1020 H     1 <1>   0.1500 
 22 C       -5.2750     2.2380     0.9250 C.ar  1 <1>  -0.1500 
 23 H       -5.9880     1.7400     1.5770 H     1 <1>   0.1500 
@<TRIPOS>BOND
  1   1   2  1   
  2   2   3  ar  
  3   2  22  ar  
  4   3   4  1   
  5   3   5  ar  
  6   5   6  1   
  7   5   7  ar  
  8   7   8  1   
  9   7  20  ar  
 10   8   9  1   
 11   8  10  1   
 12   8  11  1   
 13  11  12  2   
 14  11  13  1   
 15  13  14  1   
 16  13  15  1   
 17  13  16  1   
 18  16  17  1   
 19  16  18  1   
 20  16  19  1   
 21  20  21  1   
 22  20  22  ar  
 23  22  23  1   
@<TRIPOS>SUBSTRUCTURE
  1 ****   7 GROUP 4 **** **** 0

# MOE 2022.02 (io_trps.svl 2020.11)

@<TRIPOS>MOLECULE
FOD098
24 24 1 0 0 
SMALL
USER_CHARGES


@<TRIPOS>ATOM
  1 H        2.2340    -0.3830    -1.8650 H     1 <1>   0.0600 
  2 C        1.3000    -0.9590    -1.9440 C.2   1 <1>   0.4240 
  3 O        0.6340    -0.9140    -2.9740 O.2   1 <1>  -0.5700 
  4 C        0.8600    -1.7520    -0.7730 C.ar  1 <1>   0.0860 
  5 C       -0.3720    -2.4180    -0.8520 C.ar  1 <1>  -0.1500 
  6 H       -0.9650    -2.3690    -1.7650 H     1 <1>   0.1500 
  7 C       -0.8530    -3.1480     0.2360 C.ar  1 <1>  -0.1500 
  8 H       -1.8090    -3.6620     0.1630 H     1 <1>   0.1500 
  9 C       -0.1100    -3.2180     1.4130 C.ar  1 <1>  -0.1500 
 10 H       -0.4830    -3.7930     2.2570 H     1 <1>   0.1500 
 11 C        1.1180    -2.5600     1.5020 C.ar  1 <1>  -0.1500 
 12 H        1.6960    -2.6450     2.4200 H     1 <1>   0.1500 
 13 C        1.6050    -1.8230     0.4120 C.ar  1 <1>   0.0860 
 14 C        2.9300    -1.1750     0.5570 C.2   1 <1>   0.3030 
 15 N        3.8460    -1.4300    -0.3280 N.2   1 <1>  -0.5130 
 16 O        5.0350    -0.7480    -0.0370 O.3   1 <1>  -0.2170 
 17 C        6.0020    -1.0880    -1.0240 C.3   1 <1>   0.2800 
 18 H        6.2000    -2.1640    -1.0050 H     1 <1>   0.0000 
 19 H        5.6530    -0.7840    -2.0160 H     1 <1>   0.0000 
 20 H        6.9290    -0.5550    -0.7970 H     1 <1>   0.0000 
 21 C        3.1360    -0.2630     1.7460 C.3   1 <1>   0.0610 
 22 H        3.8710    -0.7080     2.4220 H     1 <1>   0.0000 
 23 H        3.5010     0.7100     1.4040 H     1 <1>   0.0000 
 24 H        2.2050    -0.0970     2.2940 H     1 <1>   0.0000 
@<TRIPOS>BOND
  1   1   2  1   
  2   2   3  2   
  3   2   4  1   
  4   4   5  ar  
  5   4  13  ar  
  6   5   6  1   
  7   5   7  ar  
  8   7   8  1   
  9   7   9  ar  
 10   9  10  1   
 11   9  11  ar  
 12  11  12  1   
 13  11  13  ar  
 14  13  14  1   
 15  14  15  2   
 16  14  21  1   
 17  15  16  1   
 18  16  17  1   
 19  17  18  1   
 20  17  19  1   
 21  17  20  1   
 22  21  22  1   
 23  21  23  1   
 24  21  24  1   
@<TRIPOS>SUBSTRUCTURE
  1 ****  13 GROUP 4 **** **** 0

# MOE 2022.02 (io_trps.svl 2020.11)

@<TRIPOS>MOLECULE
FOD099
9 8 1 0 0 
SMALL
USER_CHARGES


@<TRIPOS>ATOM
  1 H       -0.5820    -0.5400    -0.2700 H     1 <1>   0.1770 
  2 C        0.4760    -0.4510    -0.1930 C.1   1 <1>  -0.1770 
  3 C        1.6690    -0.3510    -0.1060 C.1   1 <1>   0.0000 
  4 C        3.0920    -0.2310    -0.0030 C.1   1 <1>   0.0000 
  5 C        4.2850    -0.1300     0.0840 C.1   1 <1>  -0.2000 
  6 C        5.7380    -0.0070     0.1890 C.3   1 <1>   0.2000 
  7 H        6.0840    -0.3140     1.1810 H     1 <1>   0.0000 
  8 H        6.2370    -0.6370    -0.5540 H     1 <1>   0.0000 
  9 H        6.0550     1.0270     0.0240 H     1 <1>   0.0000 
@<TRIPOS>BOND
  1   1   2  1   
  2   2   3  3   
  3   3   4  1   
  4   4   5  3   
  5   5   6  1   
  6   6   7  1   
  7   6   8  1   
  8   6   9  1   
@<TRIPOS>SUBSTRUCTURE
  1 ****   4 GROUP 4 **** **** 0

# MOE 2022.02 (io_trps.svl 2020.11)

@<TRIPOS>MOLECULE
FOD100
28 29 1 0 0 
SMALL
USER_CHARGES


@<TRIPOS>ATOM
  1 H        0.5100    -2.8040    -0.1700 H     1 <1>   0.0600 
  2 C        0.4810    -1.7030    -0.1250 C.2   1 <1>   0.4960 
  3 O       -0.5820    -1.0920    -0.1150 O.2   1 <1>  -0.5700 
  4 C        1.8010    -1.0390    -0.0790 C.2   1 <1>   0.0290 
  5 C        1.8900     0.2960    -0.0230 C.2   1 <1>  -0.0500 
  6 H        0.9820     0.8930    -0.0120 H     1 <1>   0.1500 
  7 N        3.0670     1.0220     0.0230 N.pl3 1 <1>  -0.5690 
  8 C        3.2080     2.4870     0.0850 C.3   1 <1>   0.3690 
  9 H        3.7580     2.7640     0.9930 H     1 <1>   0.0000 
 10 H        3.7890     2.8360    -0.7790 H     1 <1>   0.0000 
 11 C        1.8950     3.2580     0.0920 C.3   1 <1>   0.0000 
 12 H        1.3140     3.0660    -0.8160 H     1 <1>   0.0000 
 13 H        2.0940     4.3340     0.1370 H     1 <1>   0.0000 
 14 H        1.2830     2.9980     0.9620 H     1 <1>   0.0000 
 15 C        4.3150     0.3370     0.0120 C.ar  1 <1>   0.4100 
 16 N        5.4770     1.0380     0.0570 N.ar  1 <1>  -0.6200 
 17 C        6.6560     0.3680     0.0450 C.ar  1 <1>   0.1660 
 18 C        7.9100     1.1880     0.0960 C.3   1 <1>   0.1440 
 19 H        8.4910     0.9360     0.9890 H     1 <1>   0.0000 
 20 H        8.5200     1.0020    -0.7940 H     1 <1>   0.0000 
 21 H        7.6760     2.2570     0.1320 H     1 <1>   0.0000 
 22 C        6.7310    -1.0180    -0.0090 C.ar  1 <1>  -0.1500 
 23 H        7.6900    -1.5270    -0.0170 H     1 <1>   0.1500 
 24 C        5.5480    -1.7450    -0.0550 C.ar  1 <1>  -0.1500 
 25 H        5.5740    -2.8310    -0.0990 H     1 <1>   0.1500 
 26 C        4.3300    -1.0610    -0.0440 C.ar  1 <1>   0.0860 
 27 C        3.0590    -1.8130    -0.0920 C.2   1 <1>   0.4690 
 28 O        3.0480    -3.0390    -0.1420 O.2   1 <1>  -0.5700 
@<TRIPOS>BOND
  1   1   2  1   
  2   2   3  2   
  3   2   4  1   
  4   4   5  2   
  5   4  27  1   
  6   5   6  1   
  7   5   7  1   
  8   7   8  1   
  9   7  15  1   
 10   8   9  1   
 11   8  10  1   
 12   8  11  1   
 13  11  12  1   
 14  11  13  1   
 15  11  14  1   
 16  15  16  ar  
 17  15  26  ar  
 18  16  17  ar  
 19  17  18  1   
 20  17  22  ar  
 21  18  19  1   
 22  18  20  1   
 23  18  21  1   
 24  22  23  1   
 25  22  24  ar  
 26  24  25  1   
 27  24  26  ar  
 28  26  27  1   
 29  27  28  2   
@<TRIPOS>SUBSTRUCTURE
  1 ****  15 GROUP 4 **** **** 0

# MOE 2022.02 (io_trps.svl 2020.11)

@<TRIPOS>MOLECULE
FOD101
15 14 1 0 0 
SMALL
USER_CHARGES


@<TRIPOS>ATOM
  1 H       -0.2200     1.0730     0.7010 H     1 <1>   0.0600 
  2 C        0.8490     1.1320     0.4270 C.2   1 <1>   0.4490 
  3 O        1.4290     2.2140     0.4530 O.2   1 <1>  -0.5700 
  4 C        1.5260    -0.1950     0.1420 C.3   1 <1>   0.1220 
  5 H        1.6050    -0.7140     1.1050 H     1 <1>   0.0000 
  6 C        0.6680    -1.0580    -0.7530 C.2   1 <1>   0.4490 
  7 H        1.1160    -2.0110    -1.0820 H     1 <1>   0.0600 
  8 O       -0.4890    -0.7870    -1.0610 O.2   1 <1>  -0.5700 
  9 C        2.9210     0.0010    -0.4670 C.3   1 <1>   0.0000 
 10 H        3.4440     0.8210     0.0400 H     1 <1>   0.0000 
 11 H        2.8360     0.2880    -1.5220 H     1 <1>   0.0000 
 12 C        3.8010    -1.2370    -0.3550 C.3   1 <1>   0.0000 
 13 H        3.9090    -1.5500     0.6880 H     1 <1>   0.0000 
 14 H        3.3940    -2.0760    -0.9270 H     1 <1>   0.0000 
 15 H        4.8010    -1.0230    -0.7480 H     1 <1>   0.0000 
@<TRIPOS>BOND
  1   1   2  1   
  2   2   3  2   
  3   2   4  1   
  4   4   5  1   
  5   4   6  1   
  6   4   9  1   
  7   6   7  1   
  8   6   8  2   
  9   9  10  1   
 10   9  11  1   
 11   9  12  1   
 12  12  13  1   
 13  12  14  1   
 14  12  15  1   
@<TRIPOS>SUBSTRUCTURE
  1 ****   4 GROUP 4 **** **** 0

# MOE 2022.02 (io_trps.svl 2020.11)

@<TRIPOS>MOLECULE
FOD102
9 9 1 0 0 
SMALL
USER_CHARGES


@<TRIPOS>ATOM
  1 H        1.7230     1.8640    -0.0150 H     1 <1>   0.1500 
  2 C        0.6630     1.6540    -0.0090 C.2   1 <1>  -0.0100 
  3 O        0.3250     0.3380    -0.0170 O.3   1 <1>  -0.2800 
  4 C       -1.0320     0.2810    -0.0080 C.2   1 <1>  -0.0100 
  5 H       -1.4570    -0.7130    -0.0130 H     1 <1>   0.1500 
  6 C       -1.5660     1.5480     0.0060 C.2   1 <1>  -0.1500 
  7 H       -2.6180     1.7960     0.0150 H     1 <1>   0.1500 
  8 C       -0.4660     2.4390     0.0050 C.2   1 <1>  -0.1500 
  9 H       -0.4910     3.5200     0.0130 H     1 <1>   0.1500 
@<TRIPOS>BOND
  1   1   2  1   
  2   2   3  1   
  3   2   8  2   
  4   3   4  1   
  5   4   5  1   
  6   4   6  2   
  7   6   7  1   
  8   6   8  1   
  9   8   9  1   
@<TRIPOS>SUBSTRUCTURE
  1 ****   4 GROUP 4 **** **** 0

# MOE 2022.02 (io_trps.svl 2020.11)

@<TRIPOS>MOLECULE
FOD103
28 30 1 0 0 
SMALL
USER_CHARGES


@<TRIPOS>ATOM
  1 H        1.8130     0.8300     2.2470 H     1 <1>   0.4000 
  2 O        1.8970     1.4860     1.5320 O.3   1 <1>  -0.6800 
  3 C        1.7450     0.7270     0.3550 C.3   1 <1>   0.6490 
  4 H        1.7520     1.4130    -0.5010 H     1 <1>   0.0000 
  5 N        0.4520     0.0870     0.4210 N.pl3 1 <1>  -0.8690 
  6 H       -0.3940     0.5440     0.7150 H     1 <1>   0.4000 
  7 C        0.5910    -1.2170    -0.0110 C.ar  1 <1>   0.1000 
  8 C       -0.4280    -2.1140    -0.2640 C.ar  1 <1>  -0.1500 
  9 H       -1.4650    -1.8430    -0.0970 H     1 <1>   0.1500 
 10 C       -0.0980    -3.3810    -0.7520 C.ar  1 <1>  -0.1500 
 11 H       -0.8870    -4.1010    -0.9580 H     1 <1>   0.1500 
 12 C        1.2400    -3.7320    -0.9860 C.ar  1 <1>  -0.1500 
 13 H        1.4780    -4.7220    -1.3680 H     1 <1>   0.1500 
 14 C        2.2660    -2.8220    -0.7280 C.ar  1 <1>  -0.1500 
 15 H        3.3000    -3.1020    -0.9060 H     1 <1>   0.1500 
 16 C        1.9270    -1.5680    -0.2360 C.ar  1 <1>  -0.1440 
 17 C        2.8120    -0.4110     0.1640 C.3   1 <1>   0.3740 
 18 S        3.7890    -0.8230     1.6500 S.3   1 <1>  -0.3710 
 19 C        5.1590    -1.1710     0.6390 C.2   1 <1>   0.7320 
 20 S        6.4740    -2.0470     1.3500 S.3   1 <1>  -0.3710 
 21 C        7.6220    -2.1050    -0.0400 C.3   1 <1>   0.2300 
 22 H        7.1800    -2.6380    -0.8870 H     1 <1>   0.0000 
 23 H        8.5270    -2.6380     0.2640 H     1 <1>   0.0000 
 24 H        7.9060    -1.0950    -0.3510 H     1 <1>   0.0000 
 25 N        5.1360    -0.7940    -0.5950 N.2   1 <1>  -0.6960 
 26 C        3.8910    -0.0290    -0.8490 C.3   1 <1>   0.2460 
 27 H        3.5600    -0.2200    -1.8770 H     1 <1>   0.0000 
 28 H        4.1390     1.0380    -0.7850 H     1 <1>   0.0000 
@<TRIPOS>BOND
  1   1   2  1   
  2   2   3  1   
  3   3   4  1   
  4   3   5  1   
  5   3  17  1   
  6   5   6  1   
  7   5   7  1   
  8   7   8  ar  
  9   7  16  ar  
 10   8   9  1   
 11   8  10  ar  
 12  10  11  1   
 13  10  12  ar  
 14  12  13  1   
 15  12  14  ar  
 16  14  15  1   
 17  14  16  ar  
 18  16  17  1   
 19  17  18  1   
 20  17  26  1   
 21  18  19  1   
 22  19  20  1   
 23  19  25  2   
 24  20  21  1   
 25  21  22  1   
 26  21  23  1   
 27  21  24  1   
 28  25  26  1   
 29  26  27  1   
 30  26  28  1   
@<TRIPOS>SUBSTRUCTURE
  1 ****  17 GROUP 4 **** **** 0

# MOE 2022.02 (io_trps.svl 2020.11)

@<TRIPOS>MOLECULE
FOD104
27 28 1 0 0 
SMALL
USER_CHARGES


@<TRIPOS>ATOM
  1 H        8.3530    -4.5010     0.1700 H     1 <1>   0.4000 
  2 O        7.9790    -3.6360    -0.0650 O.3   1 <1>  -0.6800 
  3 C        6.5900    -3.7000     0.2440 C.3   1 <1>   0.4180 
  4 H        6.4960    -3.9190     1.3130 H     1 <1>   0.0000 
  5 H        6.1600    -4.5280    -0.3300 H     1 <1>   0.0000 
  6 C        5.8830    -2.4120    -0.0870 C.2   1 <1>  -0.1380 
  7 C        6.5000    -1.3280    -0.5980 C.2   1 <1>  -0.0730 
  8 H        7.5540    -1.3040    -0.8530 H     1 <1>   0.1500 
  9 O        5.9180    -0.1130    -0.8950 O.3   1 <1>  -0.3570 
 10 C        4.6330     0.0720    -0.2730 C.3   1 <1>   0.2800 
 11 H        4.1730     0.9560    -0.7290 H     1 <1>   0.0000 
 12 H        4.8060     0.3040     0.7860 H     1 <1>   0.0000 
 13 C        3.7420    -1.1460    -0.4730 C.3   1 <1>   0.1380 
 14 H        3.6180    -1.3350    -1.5470 H     1 <1>   0.0000 
 15 C        4.4510    -2.3430     0.1050 C.2   1 <1>  -0.1380 
 16 C        3.5990    -3.1810     0.7060 C.2   1 <1>  -0.2880 
 17 H        3.8550    -4.1170     1.1810 H     1 <1>   0.1500 
 18 C        2.1920    -2.6560     0.6510 C.3   1 <1>   0.1380 
 19 H        1.7070    -2.7670     1.6260 H     1 <1>   0.0000 
 20 H        1.6310    -3.2250    -0.0960 H     1 <1>   0.0000 
 21 C        2.3890    -1.1640     0.2790 C.3   1 <1>   0.2800 
 22 O        2.4780    -0.4390     1.5280 O.3   1 <1>  -0.6800 
 23 H        2.5560     0.5130     1.3450 H     1 <1>   0.4000 
 24 C        1.2110    -0.5680    -0.5070 C.3   1 <1>   0.2900 
 25 H        0.2920    -0.6260     0.0880 H     1 <1>   0.0000 
 26 H        1.3870     0.4960    -0.7020 H     1 <1>   0.0000 
 27 CL       0.8840    -1.3440    -2.0720 Cl    1 <1>  -0.2900 
@<TRIPOS>BOND
  1   1   2  1   
  2   2   3  1   
  3   3   4  1   
  4   3   5  1   
  5   3   6  1   
  6   6   7  2   
  7   6  15  1   
  8   7   8  1   
  9   7   9  1   
 10   9  10  1   
 11  10  11  1   
 12  10  12  1   
 13  10  13  1   
 14  13  14  1   
 15  13  15  1   
 16  13  21  1   
 17  15  16  2   
 18  16  17  1   
 19  16  18  1   
 20  18  19  1   
 21  18  20  1   
 22  18  21  1   
 23  21  22  1   
 24  21  24  1   
 25  22  23  1   
 26  24  25  1   
 27  24  26  1   
 28  24  27  1   
@<TRIPOS>SUBSTRUCTURE
  1 ****  15 GROUP 4 **** **** 0

# MOE 2022.02 (io_trps.svl 2020.11)

@<TRIPOS>MOLECULE
FOD105
33 34 1 0 0 
SMALL
USER_CHARGES


@<TRIPOS>ATOM
  1 H       -0.1190    -0.6490    -1.3180 H     1 <1>   0.4000 
  2 O       -0.4660    -1.5550    -1.2550 O.3   1 <1>  -0.6800 
  3 C        0.2570    -2.2080    -0.2190 C.3   1 <1>   0.4180 
  4 H        0.0400    -1.6860     0.7210 H     1 <1>   0.0000 
  5 C       -0.2610    -3.6100    -0.1180 C.2   1 <1>  -0.2880 
  6 H       -1.3410    -3.7230    -0.1700 H     1 <1>   0.1500 
  7 C        0.5280    -4.6920     0.0150 C.2   1 <1>  -0.2760 
  8 C       -0.0260    -6.0850     0.0700 C.3   1 <1>   0.1380 
  9 H       -1.1180    -6.0980    -0.0150 H     1 <1>   0.0000 
 10 H        0.3800    -6.6870    -0.7500 H     1 <1>   0.0000 
 11 H        0.2410    -6.5630     1.0180 H     1 <1>   0.0000 
 12 C        2.0310    -4.5680     0.1060 C.3   1 <1>   0.1380 
 13 H        2.4100    -5.2020     0.9180 H     1 <1>   0.0000 
 14 H        2.4750    -4.9630    -0.8170 H     1 <1>   0.0000 
 15 C        2.5230    -3.1310     0.3510 C.3   1 <1>   0.2800 
 16 H        2.3770    -2.8890     1.4130 H     1 <1>   0.0000 
 17 O        3.9270    -3.0870     0.0280 O.3   1 <1>  -0.4300 
 18 C        4.6340    -2.0740     0.5870 C.2   1 <1>   0.6340 
 19 O        4.1840    -1.2120     1.3250 O.2   1 <1>  -0.5700 
 20 C        6.0610    -2.1400     0.1700 C.ar  1 <1>   0.0860 
 21 C        6.5480    -3.1330    -0.6920 C.ar  1 <1>  -0.1500 
 22 H        5.8910    -3.9030    -1.0900 H     1 <1>   0.1500 
 23 C        7.8970    -3.1470    -1.0560 C.ar  1 <1>  -0.1500 
 24 H        8.2710    -3.9190    -1.7250 H     1 <1>   0.1500 
 25 C        8.7640    -2.1730    -0.5630 C.ar  1 <1>  -0.1500 
 26 H        9.8140    -2.1850    -0.8480 H     1 <1>   0.1500 
 27 C        8.2880    -1.1830     0.2950 C.ar  1 <1>  -0.1500 
 28 H        8.9650    -0.4230     0.6790 H     1 <1>   0.1500 
 29 C        6.9400    -1.1650     0.6600 C.ar  1 <1>  -0.1500 
 30 H        6.5790    -0.3870     1.3300 H     1 <1>   0.1500 
 31 C        1.7510    -2.1490    -0.5280 C.3   1 <1>   0.0000 
 32 H        2.1160    -1.1240    -0.3930 H     1 <1>   0.0000 
 33 H        1.9380    -2.3660    -1.5900 H     1 <1>   0.0000 
@<TRIPOS>BOND
  1   1   2  1   
  2   2   3  1   
  3   3   4  1   
  4   3   5  1   
  5   3  31  1   
  6   5   6  1   
  7   5   7  2   
  8   7   8  1   
  9   7  12  1   
 10   8   9  1   
 11   8  10  1   
 12   8  11  1   
 13  12  13  1   
 14  12  14  1   
 15  12  15  1   
 16  15  16  1   
 17  15  17  1   
 18  15  31  1   
 19  17  18  1   
 20  18  19  2   
 21  18  20  1   
 22  20  21  ar  
 23  20  29  ar  
 24  21  22  1   
 25  21  23  ar  
 26  23  24  1   
 27  23  25  ar  
 28  25  26  1   
 29  25  27  ar  
 30  27  28  1   
 31  27  29  ar  
 32  29  30  1   
 33  31  32  1   
 34  31  33  1   
@<TRIPOS>SUBSTRUCTURE
  1 ****  17 GROUP 4 **** **** 0

# MOE 2022.02 (io_trps.svl 2020.11)

@<TRIPOS>MOLECULE
FOD106
13 12 1 0 0 
SMALL
USER_CHARGES


@<TRIPOS>ATOM
  1 H        0.4070    -0.9850    -0.1310 H     1 <1>   0.1500 
  2 C        0.4250     0.1000    -0.1120 C.2   1 <1>  -0.0850 
  3 C        1.7160     0.6890    -0.2110 C.1   1 <1>   0.4920 
  4 N        2.7750     1.1560    -0.2920 N.1   1 <1>  -0.5570 
  5 C       -0.7250     0.7930     0.0010 C.2   1 <1>  -0.2760 
  6 C       -0.8230     2.2950     0.0390 C.3   1 <1>   0.1380 
  7 H        0.1470     2.7940    -0.0400 H     1 <1>   0.0000 
  8 H       -1.2830     2.6180     0.9780 H     1 <1>   0.0000 
  9 H       -1.4440     2.6520    -0.7900 H     1 <1>   0.0000 
 10 C       -2.0470     0.0790     0.1030 C.3   1 <1>   0.1380 
 11 H       -2.7000     0.3710    -0.7260 H     1 <1>   0.0000 
 12 H       -2.5440     0.3340     1.0450 H     1 <1>   0.0000 
 13 H       -1.9340    -1.0100     0.0700 H     1 <1>   0.0000 
@<TRIPOS>BOND
  1   1   2  1   
  2   2   3  1   
  3   2   5  2   
  4   3   4  3   
  5   5   6  1   
  6   5  10  1   
  7   6   7  1   
  8   6   8  1   
  9   6   9  1   
 10  10  11  1   
 11  10  12  1   
 12  10  13  1   
@<TRIPOS>SUBSTRUCTURE
  1 ****   2 GROUP 4 **** **** 0

# MOE 2022.02 (io_trps.svl 2020.11)

@<TRIPOS>MOLECULE
FOD107
25 26 1 0 0 
SMALL
USER_CHARGES


@<TRIPOS>ATOM
  1 H        1.3300    -1.0470    -0.4150 H     1 <1>   0.1500 
  2 C        0.7510    -0.1360    -0.3220 C.2   1 <1>   0.1390 
  3 N       -0.5810    -0.2080    -0.3490 N.2   1 <1>  -0.7070 
  4 N       -0.9790     1.0750    -0.1770 N.pl3 1 <1>   0.3140 
  5 C       -2.3980     1.3380    -0.0840 C.3   1 <1>   0.2560 
  6 H       -2.7430     1.7140    -1.0500 H     1 <1>   0.0000 
  7 H       -2.5790     2.0600     0.7160 H     1 <1>   0.0000 
  8 H       -2.9200     0.4070     0.1560 H     1 <1>   0.0000 
  9 C        0.0650     1.9650    -0.1110 C.2   1 <1>  -0.2140 
 10 S       -0.2070     3.6800     0.0450 S.o2  1 <1>   1.5000 
 11 O       -0.1780     3.9160     1.4690 O.2   1 <1>  -0.6500 
 12 O       -1.3820     3.9680    -0.7440 O.2   1 <1>  -0.6500 
 13 N        1.0290     4.5980    -0.6120 N.am  1 <1>  -0.9780 
 14 H        1.8970     4.4770    -0.0800 H     1 <1>   0.4200 
 15 H        0.7510     5.5790    -0.6620 H     1 <1>   0.4200 
 16 C        1.2010     1.1810    -0.1530 C.2   1 <1>   0.0000 
 17 C        2.5950     1.5520    -0.0420 C.2   1 <1>   0.5160 
 18 N        2.9790     2.8130     0.3240 N.2   1 <1>  -0.2270 
 19 N        4.3040     2.8140     0.3320 N.2   1 <1>  -0.4180 
 20 N        4.6470     1.5590    -0.0080 N.pl3 1 <1>   0.5800 
 21 C        6.0220     1.1510    -0.1040 C.3   1 <1>   0.2560 
 22 H        6.0720     0.0630    -0.2020 H     1 <1>   0.0000 
 23 H        6.4610     1.6290    -0.9820 H     1 <1>   0.0000 
 24 H        6.5440     1.4640     0.8040 H     1 <1>   0.0000 
 25 N        3.6230     0.7200    -0.2550 N.2   1 <1>  -0.7070 
@<TRIPOS>BOND
  1   1   2  1   
  2   2   3  2   
  3   2  16  1   
  4   3   4  1   
  5   4   5  1   
  6   4   9  1   
  7   5   6  1   
  8   5   7  1   
  9   5   8  1   
 10   9  10  1   
 11   9  16  2   
 12  10  11  2   
 13  10  12  2   
 14  10  13  am  
 15  13  14  1   
 16  13  15  1   
 17  16  17  1   
 18  17  18  1   
 19  17  25  2   
 20  18  19  2   
 21  19  20  1   
 22  20  21  1   
 23  20  25  1   
 24  21  22  1   
 25  21  23  1   
 26  21  24  1   
@<TRIPOS>SUBSTRUCTURE
  1 ****  16 GROUP 4 **** **** 0

# MOE 2022.02 (io_trps.svl 2020.11)

@<TRIPOS>MOLECULE
FOD108
20 21 1 0 0 
SMALL
USER_CHARGES


@<TRIPOS>ATOM
  1 H       -6.4560    -3.2860     0.0000 H     1 <1>   0.1500 
  2 C       -5.3730    -3.2620     0.0000 C.ar  1 <1>   0.1600 
  3 N       -4.8030    -2.0410    -0.0040 N.ar  1 <1>  -0.6200 
  4 C       -3.4430    -2.0370    -0.0040 C.ar  1 <1>   0.1600 
  5 H       -3.0140    -1.0430    -0.0070 H     1 <1>   0.1500 
  6 C       -2.6580    -3.1920     0.0000 C.ar  1 <1>   0.3100 
  7 C       -1.1730    -3.2010     0.0000 C.ar  1 <1>   0.0000 
  8 C       -0.4640    -4.4210    -0.0010 C.ar  1 <1>  -0.1500 
  9 H       -1.0080    -5.3650    -0.0010 H     1 <1>   0.1500 
 10 C        0.9340    -4.4690     0.0000 C.ar  1 <1>  -0.1500 
 11 H        1.4420    -5.4290    -0.0010 H     1 <1>   0.1500 
 12 C        1.6690    -3.2900     0.0000 C.ar  1 <1>  -0.1500 
 13 H        2.7550    -3.3230     0.0010 H     1 <1>   0.1500 
 14 C        1.0050    -2.0680     0.0010 C.ar  1 <1>  -0.1500 
 15 H        1.5750    -1.1430     0.0020 H     1 <1>   0.1500 
 16 C       -0.3950    -2.0260     0.0010 C.ar  1 <1>  -0.1500 
 17 H       -0.8550    -1.0420     0.0020 H     1 <1>   0.1500 
 18 N       -3.2690    -4.4100     0.0030 N.ar  1 <1>  -0.6200 
 19 C       -4.6220    -4.4210     0.0030 C.ar  1 <1>   0.1600 
 20 H       -5.0880    -5.3990     0.0060 H     1 <1>   0.1500 
@<TRIPOS>BOND
  1   1   2  1   
  2   2   3  ar  
  3   2  19  ar  
  4   3   4  ar  
  5   4   5  1   
  6   4   6  ar  
  7   6   7  1   
  8   6  18  ar  
  9   7   8  ar  
 10   7  16  ar  
 11   8   9  1   
 12   8  10  ar  
 13  10  11  1   
 14  10  12  ar  
 15  12  13  1   
 16  12  14  ar  
 17  14  15  1   
 18  14  16  ar  
 19  16  17  1   
 20  18  19  ar  
 21  19  20  1   
@<TRIPOS>SUBSTRUCTURE
  1 ****   7 GROUP 4 **** **** 0

# MOE 2022.02 (io_trps.svl 2020.11)

@<TRIPOS>MOLECULE
FOD109
17 17 1 0 0 
SMALL
USER_CHARGES


@<TRIPOS>ATOM
  1 H        6.4280    -0.5100     0.7200 H     1 <1>   0.4500 
  2 O        5.9940    -1.2200     0.2170 O.3   1 <1>  -0.5130 
  3 C        4.7320    -0.8450     0.1810 C.2   1 <1>   0.2030 
  4 O        4.4820     0.3270     0.8120 O.3   1 <1>  -0.2800 
  5 C        3.1510     0.5430     0.6740 C.2   1 <1>   0.2030 
  6 O        2.7270     1.6550     1.2390 O.3   1 <1>  -0.5130 
  7 H        3.5350     2.0390     1.6200 H     1 <1>   0.4500 
  8 C        2.5390    -0.4680    -0.0340 C.2   1 <1>  -0.1810 
  9 C        1.0970    -0.5840    -0.3830 C.3   1 <1>   0.1810 
 10 H        0.6760     0.4150    -0.5550 H     1 <1>   0.0000 
 11 H        0.9910    -1.1340    -1.3250 H     1 <1>   0.0000 
 12 C        0.2940    -1.2890     0.6990 C.3   1 <1>   0.0000 
 13 H        0.3450    -0.7450     1.6490 H     1 <1>   0.0000 
 14 H       -0.7580    -1.3610     0.4050 H     1 <1>   0.0000 
 15 H        0.6690    -2.3030     0.8730 H     1 <1>   0.0000 
 16 C        3.5880    -1.3780    -0.3570 C.2   1 <1>  -0.1500 
 17 H        3.5180    -2.3040    -0.9080 H     1 <1>   0.1500 
@<TRIPOS>BOND
  1   1   2  1   
  2   2   3  1   
  3   3   4  1   
  4   3  16  2   
  5   4   5  1   
  6   5   6  1   
  7   5   8  2   
  8   6   7  1   
  9   8   9  1   
 10   8  16  1   
 11   9  10  1   
 12   9  11  1   
 13   9  12  1   
 14  12  13  1   
 15  12  14  1   
 16  12  15  1   
 17  16  17  1   
@<TRIPOS>SUBSTRUCTURE
  1 ****   8 GROUP 4 **** **** 0

# MOE 2022.02 (io_trps.svl 2020.11)

@<TRIPOS>MOLECULE
FOD110
13 12 1 0 0 
SMALL
USER_CHARGES


@<TRIPOS>ATOM
  1 H       -0.3730    -2.4680    -0.4030 H     1 <1>   0.0000 
  2 C       -0.2910    -1.5190     0.1360 C.3   1 <1>   0.0000 
  3 H       -0.4200    -1.7180     1.2040 H     1 <1>   0.0000 
  4 H       -1.1100    -0.8710    -0.1910 H     1 <1>   0.0000 
  5 C        1.0470    -0.8520    -0.1360 C.3   1 <1>   0.0000 
  6 H        1.0880     0.1100     0.3900 H     1 <1>   0.0000 
  7 H        1.1330    -0.6310    -1.2060 H     1 <1>   0.0000 
  8 C        2.2120    -1.7320     0.3060 C.3   1 <1>   0.2460 
  9 H        2.1840    -2.6880    -0.2320 H     1 <1>   0.0000 
 10 H        2.1370    -1.9430     1.3800 H     1 <1>   0.0000 
 11 N        3.4660    -1.0270     0.0160 N.2   1 <1>  -0.5460 
 12 C        4.5150    -1.4960     0.2510 C.1   1 <1>   0.5750 
 13 S        5.9590    -2.1380     0.5710 S.2   1 <1>  -0.2750 
@<TRIPOS>BOND
  1   1   2  1   
  2   2   3  1   
  3   2   4  1   
  4   2   5  1   
  5   5   6  1   
  6   5   7  1   
  7   5   8  1   
  8   8   9  1   
  9   8  10  1   
 10   8  11  1   
 11  11  12  2   
 12  12  13  2   
@<TRIPOS>SUBSTRUCTURE
  1 ****   8 GROUP 4 **** **** 0

# MOE 2022.02 (io_trps.svl 2020.11)

@<TRIPOS>MOLECULE
FOD111
21 21 1 0 0 
SMALL
USER_CHARGES


@<TRIPOS>ATOM
  1 H       -0.6680    -0.1710     2.0260 H     1 <1>   0.5000 
  2 O       -0.2950     0.2450     1.2210 O.3   1 <1>  -0.6500 
  3 C       -1.0130     1.3850     1.1010 C.2   1 <1>   0.7200 
  4 O       -1.9360     1.6370     1.8610 O.2   1 <1>  -0.5700 
  5 C       -0.6080     2.2360    -0.0820 C.3   1 <1>   0.1490 
  6 N        0.7680     2.0980    -0.5240 N.am  1 <1>  -0.5790 
  7 H        0.9370     1.6020    -1.3890 H     1 <1>   0.3700 
  8 C        1.8200     2.5900     0.2200 C.2   1 <1>   0.5690 
  9 O        1.6810     3.1990     1.2760 O.2   1 <1>  -0.5700 
 10 C        3.1670     2.3400    -0.3990 C.3   1 <1>   0.1220 
 11 H        3.3700     3.1460    -1.1110 H     1 <1>   0.0000 
 12 H        3.1660     1.3850    -0.9360 H     1 <1>   0.0000 
 13 C        4.2700     2.3200     0.6150 C.2   1 <1>   0.4490 
 14 H        4.2710     3.1360     1.3580 H     1 <1>   0.0600 
 15 O        5.1890     1.5040     0.5790 O.2   1 <1>  -0.5700 
 16 C       -1.2760     3.5910    -0.2570 C.3   1 <1>  -0.2000 
 17 H       -1.9810     3.9140     0.5020 H     1 <1>   0.1000 
 18 H       -0.6880     4.4010    -0.6730 H     1 <1>   0.1000 
 19 C       -1.6670     2.4600    -1.1530 C.3   1 <1>  -0.2000 
 20 H       -2.6490     2.0210    -1.0060 H     1 <1>   0.1000 
 21 H       -1.3610     2.5100    -2.1910 H     1 <1>   0.1000 
@<TRIPOS>BOND
  1   1   2  1   
  2   2   3  1   
  3   3   4  2   
  4   3   5  1   
  5   5   6  1   
  6   5  16  1   
  7   5  19  1   
  8   6   7  1   
  9   6   8  am  
 10   8   9  2   
 11   8  10  1   
 12  10  11  1   
 13  10  12  1   
 14  10  13  1   
 15  13  14  1   
 16  13  15  2   
 17  16  17  1   
 18  16  18  1   
 19  16  19  1   
 20  19  20  1   
 21  19  21  1   
@<TRIPOS>SUBSTRUCTURE
  1 ****   6 GROUP 4 **** **** 0

# MOE 2022.02 (io_trps.svl 2020.11)

@<TRIPOS>MOLECULE
FOD112
34 35 1 0 0 
SMALL
USER_CHARGES


@<TRIPOS>ATOM
  1 H        5.2140    -4.0850     0.9220 H     1 <1>   0.0600 
  2 C        5.3720    -3.0360     1.2270 C.2   1 <1>   0.4490 
  3 O        5.8770    -2.7730     2.3140 O.2   1 <1>  -0.5700 
  4 C        4.8930    -1.9900     0.2450 C.3   1 <1>   0.0610 
  5 H        5.2080    -2.2970    -0.7600 H     1 <1>   0.0000 
  6 C        5.4550    -0.6110     0.5540 C.3   1 <1>   0.0610 
  7 H        6.4060    -0.4430     0.0420 H     1 <1>   0.0000 
  8 H        5.5630    -0.4070     1.6230 H     1 <1>   0.0000 
  9 C        4.3880     0.2850     0.0030 C.2   1 <1>   0.4480 
 10 O        4.5940     1.4610    -0.2700 O.2   1 <1>  -0.5700 
 11 C        3.0580    -0.4250    -0.2050 C.3   1 <1>   0.0610 
 12 H        2.8910    -0.4640    -1.2900 H     1 <1>   0.0000 
 13 C        3.3670    -1.8270     0.3540 C.3   1 <1>   0.0610 
 14 H        3.0620    -1.9230     1.4040 H     1 <1>   0.0000 
 15 C        2.6520    -2.9040    -0.4400 C.2   1 <1>   0.4480 
 16 O        3.2600    -3.8960    -0.8470 O.2   1 <1>  -0.5700 
 17 C        1.1740    -2.7470    -0.7250 C.3   1 <1>   0.0610 
 18 H        0.7720    -3.7660    -0.7970 H     1 <1>   0.0000 
 19 H        1.0640    -2.2830    -1.7120 H     1 <1>   0.0000 
 20 C        0.4020    -1.9670     0.3470 C.3   1 <1>   0.0000 
 21 H        0.7740    -2.2200     1.3470 H     1 <1>   0.0000 
 22 C       -1.0760    -2.3800     0.2970 C.3   1 <1>   0.0000 
 23 H       -1.6550    -1.8530     1.0640 H     1 <1>   0.0000 
 24 H       -1.5190    -2.1540    -0.6790 H     1 <1>   0.0000 
 25 H       -1.1880    -3.4540     0.4820 H     1 <1>   0.0000 
 26 C        0.5040    -0.4450     0.1360 C.3   1 <1>   0.0000 
 27 H       -0.2750     0.0370     0.7430 H     1 <1>   0.0000 
 28 H        0.2560    -0.2090    -0.9080 H     1 <1>   0.0000 
 29 C        1.8500     0.2210     0.5040 C.3   1 <1>   0.0000 
 30 H        1.9870     0.1310     1.5910 H     1 <1>   0.0000 
 31 C        1.7150     1.7220     0.1990 C.3   1 <1>   0.0000 
 32 H        2.5120     2.2990     0.6740 H     1 <1>   0.0000 
 33 H        1.7380     1.9120    -0.8790 H     1 <1>   0.0000 
 34 H        0.7720     2.1200     0.5910 H     1 <1>   0.0000 
@<TRIPOS>BOND
  1   1   2  1   
  2   2   3  2   
  3   2   4  1   
  4   4   5  1   
  5   4   6  1   
  6   4  13  1   
  7   6   7  1   
  8   6   8  1   
  9   6   9  1   
 10   9  10  2   
 11   9  11  1   
 12  11  12  1   
 13  11  13  1   
 14  11  29  1   
 15  13  14  1   
 16  13  15  1   
 17  15  16  2   
 18  15  17  1   
 19  17  18  1   
 20  17  19  1   
 21  17  20  1   
 22  20  21  1   
 23  20  22  1   
 24  20  26  1   
 25  22  23  1   
 26  22  24  1   
 27  22  25  1   
 28  26  27  1   
 29  26  28  1   
 30  26  29  1   
 31  29  30  1   
 32  29  31  1   
 33  31  32  1   
 34  31  33  1   
 35  31  34  1   
@<TRIPOS>SUBSTRUCTURE
  1 ****  13 GROUP 4 **** **** 0

# MOE 2022.02 (io_trps.svl 2020.11)

@<TRIPOS>MOLECULE
FOD113
17 17 1 0 0 
SMALL
USER_CHARGES


@<TRIPOS>ATOM
  1 H        4.5100     3.7200     0.8340 H     1 <1>   0.4000 
  2 O        3.6260     3.3870     0.6050 O.3   1 <1>  -0.6800 
  3 C        3.7790     2.0040     0.2480 C.3   1 <1>   0.6240 
  4 H        4.3280     2.0010    -0.7020 H     1 <1>   0.0000 
  5 C        4.5640     1.2740     1.2670 C.1   1 <1>   0.3570 
  6 N        5.2230     0.7330     2.0570 N.1   1 <1>  -0.5570 
  7 C        2.4160     1.3810     0.0250 C.ar  1 <1>  -0.1440 
  8 C        2.2500     0.3800    -0.9480 C.ar  1 <1>  -0.1500 
  9 H        3.0880     0.0590    -1.5620 H     1 <1>   0.1500 
 10 C        1.0060    -0.2240    -1.1430 C.ar  1 <1>  -0.1500 
 11 H        0.8880    -0.9960    -1.8990 H     1 <1>   0.1500 
 12 C       -0.0860     0.1600    -0.3680 C.ar  1 <1>  -0.1500 
 13 H       -1.0540    -0.3110    -0.5210 H     1 <1>   0.1500 
 14 C        0.0630     1.1460     0.6050 C.ar  1 <1>  -0.1500 
 15 H       -0.7880     1.4450     1.2100 H     1 <1>   0.1500 
 16 C        1.3060     1.7500     0.8030 C.ar  1 <1>  -0.1500 
 17 H        1.4030     2.5190     1.5680 H     1 <1>   0.1500 
@<TRIPOS>BOND
  1   1   2  1   
  2   2   3  1   
  3   3   4  1   
  4   3   5  1   
  5   3   7  1   
  6   5   6  3   
  7   7   8  ar  
  8   7  16  ar  
  9   8   9  1   
 10   8  10  ar  
 11  10  11  1   
 12  10  12  ar  
 13  12  13  1   
 14  12  14  ar  
 15  14  15  1   
 16  14  16  ar  
 17  16  17  1   
@<TRIPOS>SUBSTRUCTURE
  1 ****   7 GROUP 4 **** **** 0

# MOE 2022.02 (io_trps.svl 2020.11)

@<TRIPOS>MOLECULE
FOD114
9 8 1 0 0 
SMALL
USER_CHARGES


@<TRIPOS>ATOM
  1 H        2.5930    -1.6290    -0.6750 H     1 <1>   0.0600 
  2 C        2.6260    -0.7070    -0.0760 C.2   1 <1>   0.5100 
  3 O        3.6030    -0.3330     0.5520 O.2   1 <1>  -0.5700 
  4 C        1.3390     0.0850    -0.0930 C.2   1 <1>   0.7200 
  5 O        1.2220     1.2080    -0.5470 O.2   1 <1>  -0.5700 
  6 O        0.3650    -0.7090     0.4350 O.3   1 <1>  -0.0500 
  7 N       -0.9350    -0.0210     0.5030 N.3   1 <1>  -0.8200 
  8 H       -0.7150     0.9390     0.2050 H     1 <1>   0.3600 
  9 H       -1.4370    -0.4430    -0.2790 H     1 <1>   0.3600 
@<TRIPOS>BOND
  1   1   2  1   
  2   2   3  2   
  3   2   4  1   
  4   4   5  2   
  5   4   6  1   
  6   6   7  1   
  7   7   8  1   
  8   7   9  1   
@<TRIPOS>SUBSTRUCTURE
  1 ****   4 GROUP 4 **** **** 0

# MOE 2022.02 (io_trps.svl 2020.11)

@<TRIPOS>MOLECULE
FOD115
27 27 1 0 0 
SMALL
USER_CHARGES


@<TRIPOS>ATOM
  1 H        0.3570     2.4860     0.4690 H     1 <1>   0.0600 
  2 C        0.3050     1.8100    -0.4000 C.2   1 <1>   0.5100 
  3 O       -0.6080     1.8640    -1.2140 O.2   1 <1>  -0.5700 
  4 C        1.4070     0.8330    -0.5560 C.3   1 <1>  -0.1000 
  5 H        1.9370     0.9570    -1.4960 H     1 <1>   0.1000 
  6 C        2.2190     0.4140     0.6510 C.3   1 <1>  -0.0600 
  7 H        1.9130     0.7890     1.6250 H     1 <1>   0.1000 
  8 C        3.6780     0.2920     0.5200 C.2   1 <1>  -0.1900 
  9 H        4.0580    -0.7290     0.5430 H     1 <1>   0.1500 
 10 C        4.5770     1.2880     0.4050 C.2   1 <1>  -0.2760 
 11 C        4.2210     2.7490     0.3930 C.3   1 <1>   0.1380 
 12 H        4.5010     3.1970    -0.5660 H     1 <1>   0.0000 
 13 H        4.7580     3.2740     1.1900 H     1 <1>   0.0000 
 14 H        3.1540     2.9300     0.5480 H     1 <1>   0.0000 
 15 C        6.0490     0.9990     0.2800 C.3   1 <1>   0.1380 
 16 H        6.2630    -0.0750     0.2840 H     1 <1>   0.0000 
 17 H        6.5960     1.4500     1.1140 H     1 <1>   0.0000 
 18 H        6.4380     1.4110    -0.6560 H     1 <1>   0.0000 
 19 C        1.2860    -0.5840    -0.0220 C.3   1 <1>  -0.1900 
 20 C        1.8260    -1.6890    -0.8990 C.3   1 <1>   0.0950 
 21 H        2.1750    -2.5250    -0.2840 H     1 <1>   0.0000 
 22 H        1.0410    -2.0590    -1.5670 H     1 <1>   0.0000 
 23 H        2.6600    -1.3580    -1.5270 H     1 <1>   0.0000 
 24 C        0.0460    -0.9870     0.7410 C.3   1 <1>   0.0950 
 25 H       -0.7710    -1.2120     0.0470 H     1 <1>   0.0000 
 26 H       -0.2980    -0.2030     1.4240 H     1 <1>   0.0000 
 27 H        0.2450    -1.8820     1.3400 H     1 <1>   0.0000 
@<TRIPOS>BOND
  1   1   2  1   
  2   2   3  2   
  3   2   4  1   
  4   4   5  1   
  5   4   6  1   
  6   4  19  1   
  7   6   7  1   
  8   6   8  1   
  9   6  19  1   
 10   8   9  1   
 11   8  10  2   
 12  10  11  1   
 13  10  15  1   
 14  11  12  1   
 15  11  13  1   
 16  11  14  1   
 17  15  16  1   
 18  15  17  1   
 19  15  18  1   
 20  19  20  1   
 21  19  24  1   
 22  20  21  1   
 23  20  22  1   
 24  20  23  1   
 25  24  25  1   
 26  24  26  1   
 27  24  27  1   
@<TRIPOS>SUBSTRUCTURE
  1 ****   6 GROUP 4 **** **** 0

# MOE 2022.02 (io_trps.svl 2020.11)

@<TRIPOS>MOLECULE
FOD116
36 37 1 0 0 
SMALL
USER_CHARGES


@<TRIPOS>ATOM
  1 H        6.0890     6.1170     1.6570 H     1 <1>   0.1500 
  2 C        5.1380     6.3290     1.1750 C.ar  1 <1>  -0.1500 
  3 C        4.3180     7.3430     1.6650 C.ar  1 <1>  -0.1500 
  4 H        4.6300     7.9220     2.5310 H     1 <1>   0.1500 
  5 C        3.0960     7.6150     1.0480 C.ar  1 <1>  -0.1500 
  6 H        2.4660     8.4060     1.4480 H     1 <1>   0.1500 
  7 C        2.6840     6.8760    -0.0710 C.ar  1 <1>  -0.1440 
  8 C        1.3560     7.1580    -0.7280 C.3   1 <1>   0.3740 
  9 H        1.4290     6.9520    -1.8030 H     1 <1>   0.0000 
 10 H        1.1110     8.2210    -0.6190 H     1 <1>   0.0000 
 11 S        0.0370     6.1460     0.0020 S.3   1 <1>  -0.3710 
 12 C       -1.3190     6.7020    -0.9900 C.2   1 <1>   0.6500 
 13 O       -1.1760     7.5870    -1.8270 O.2   1 <1>  -0.5700 
 14 C       -2.6760     6.0380    -0.7000 C.3   1 <1>   0.3310 
 15 H       -3.3200     6.2640    -1.5590 H     1 <1>   0.0000 
 16 N       -2.5540     4.5590    -0.6250 N.3   1 <1>  -0.9900 
 17 H       -1.8500     4.3200     0.0770 H     1 <1>   0.3600 
 18 H       -2.1970     4.2070    -1.5130 H     1 <1>   0.3600 
 19 C       -3.2760     6.6480     0.5800 C.3   1 <1>   0.1440 
 20 H       -2.8660     6.1620     1.4760 H     1 <1>   0.0000 
 21 H       -2.9770     7.7010     0.6700 H     1 <1>   0.0000 
 22 C       -4.7850     6.5700     0.6260 C.ar  1 <1>  -0.1440 
 23 C       -5.4260     5.3770     0.9860 C.ar  1 <1>  -0.1500 
 24 H       -4.8410     4.4930     1.2340 H     1 <1>   0.1500 
 25 C       -6.8190     5.3040     1.0190 C.ar  1 <1>  -0.1500 
 26 H       -7.3050     4.3720     1.2960 H     1 <1>   0.1500 
 27 C       -7.5850     6.4210     0.6930 C.ar  1 <1>  -0.1500 
 28 H       -8.6700     6.3620     0.7180 H     1 <1>   0.1500 
 29 C       -6.9580     7.6110     0.3290 C.ar  1 <1>  -0.1500 
 30 H       -7.5550     8.4820     0.0710 H     1 <1>   0.1500 
 31 C       -5.5650     7.6860     0.2940 C.ar  1 <1>  -0.1500 
 32 H       -5.0940     8.6230     0.0050 H     1 <1>   0.1500 
 33 C        3.5150     5.8530    -0.5510 C.ar  1 <1>  -0.1500 
 34 H        3.2140     5.2570    -1.4100 H     1 <1>   0.1500 
 35 C        4.7360     5.5830     0.0690 C.ar  1 <1>  -0.1500 
 36 H        5.3740     4.7880    -0.3110 H     1 <1>   0.1500 
@<TRIPOS>BOND
  1   1   2  1   
  2   2   3  ar  
  3   2  35  ar  
  4   3   4  1   
  5   3   5  ar  
  6   5   6  1   
  7   5   7  ar  
  8   7   8  1   
  9   7  33  ar  
 10   8   9  1   
 11   8  10  1   
 12   8  11  1   
 13  11  12  1   
 14  12  13  2   
 15  12  14  1   
 16  14  15  1   
 17  14  16  1   
 18  14  19  1   
 19  16  17  1   
 20  16  18  1   
 21  19  20  1   
 22  19  21  1   
 23  19  22  1   
 24  22  23  ar  
 25  22  31  ar  
 26  23  24  1   
 27  23  25  ar  
 28  25  26  1   
 29  25  27  ar  
 30  27  28  1   
 31  27  29  ar  
 32  29  30  1   
 33  29  31  ar  
 34  31  32  1   
 35  33  34  1   
 36  33  35  ar  
 37  35  36  1   
@<TRIPOS>SUBSTRUCTURE
  1 ****  12 GROUP 4 **** **** 0

# MOE 2022.02 (io_trps.svl 2020.11)

@<TRIPOS>MOLECULE
FOD117
24 25 1 0 0 
SMALL
USER_CHARGES


@<TRIPOS>ATOM
  1 H        1.8870     2.2170     0.2530 H     1 <1>   0.0600 
  2 C        1.3030     1.3630     0.6340 C.2   1 <1>   0.4960 
  3 O        0.3180     1.5510     1.3380 O.2   1 <1>  -0.5700 
  4 C        1.8280     0.0090     0.2380 C.2   1 <1>   0.1230 
  5 C        1.0350    -1.0750     0.0170 C.2   1 <1>  -0.1380 
  6 C       -0.4240    -1.0470     0.1800 C.2   1 <1>  -0.1500 
  7 H       -0.9020    -0.0730     0.2780 H     1 <1>   0.1500 
  8 C       -1.2470    -2.1040     0.2400 C.2   1 <1>  -0.3000 
  9 H       -2.3150    -1.9480     0.3720 H     1 <1>   0.1500 
 10 H       -0.9150    -3.1340     0.1830 H     1 <1>   0.1500 
 11 C        1.5920    -2.4060    -0.4960 C.3   1 <1>   0.3680 
 12 H        1.6890    -3.1120     0.3370 H     1 <1>   0.0000 
 13 H        0.9170    -2.8460    -1.2370 H     1 <1>   0.0000 
 14 S        3.1950    -2.2820    -1.3560 S.3   1 <1>  -0.4470 
 15 C        3.9270    -1.3050    -0.0290 C.3   1 <1>   0.4420 
 16 H        4.0110    -1.8240     0.9340 H     1 <1>   0.0000 
 17 N        3.1770    -0.0700     0.0740 N.am  1 <1>  -0.3940 
 18 C        4.2300     0.7700    -0.0120 C.2   1 <1>   0.5770 
 19 O        4.3340     1.9660     0.1220 O.2   1 <1>  -0.5700 
 20 C        5.1550    -0.4310    -0.4330 C.3   1 <1>   0.2630 
 21 H        5.4340    -0.4040    -1.4910 H     1 <1>   0.0000 
 22 N        6.2850    -0.6950     0.4830 N.3   1 <1>  -0.9300 
 23 H        6.8740    -1.4740     0.1880 H     1 <1>   0.3600 
 24 H        6.9130     0.1060     0.5750 H     1 <1>   0.3600 
@<TRIPOS>BOND
  1   1   2  1   
  2   2   3  2   
  3   2   4  1   
  4   4   5  2   
  5   4  17  1   
  6   5   6  1   
  7   5  11  1   
  8   6   7  1   
  9   6   8  2   
 10   8   9  1   
 11   8  10  1   
 12  11  12  1   
 13  11  13  1   
 14  11  14  1   
 15  14  15  1   
 16  15  16  1   
 17  15  17  1   
 18  15  20  1   
 19  17  18  am  
 20  18  19  2   
 21  18  20  1   
 22  20  21  1   
 23  20  22  1   
 24  22  23  1   
 25  22  24  1   
@<TRIPOS>SUBSTRUCTURE
  1 ****  17 GROUP 4 **** **** 0

# MOE 2022.02 (io_trps.svl 2020.11)

@<TRIPOS>MOLECULE
FOD118
11 11 1 0 0 
SMALL
USER_CHARGES


@<TRIPOS>ATOM
  1 H        2.0100    -1.4470    -1.1260 H     1 <1>   0.0600 
  2 C        2.0800    -0.9030    -0.1700 C.2   1 <1>   0.5100 
  3 O        3.1550    -0.6000     0.3300 O.2   1 <1>  -0.5700 
  4 C        0.8070    -0.5600     0.5030 C.3   1 <1>  -0.1000 
  5 H        0.7510    -0.9120     1.5290 H     1 <1>   0.1000 
  6 C       -0.4840    -0.5100    -0.2740 C.3   1 <1>  -0.2000 
  7 H       -0.4670    -0.7050    -1.3400 H     1 <1>   0.1000 
  8 H       -1.3870    -0.8510     0.2220 H     1 <1>   0.1000 
  9 C        0.1450     0.7640     0.2130 C.3   1 <1>  -0.2000 
 10 H        0.6030     1.4220    -0.5170 H     1 <1>   0.1000 
 11 H       -0.3250     1.2840     1.0410 H     1 <1>   0.1000 
@<TRIPOS>BOND
  1   1   2  1   
  2   2   3  2   
  3   2   4  1   
  4   4   5  1   
  5   4   6  1   
  6   4   9  1   
  7   6   7  1   
  8   6   8  1   
  9   6   9  1   
 10   9  10  1   
 11   9  11  1   
@<TRIPOS>SUBSTRUCTURE
  1 ****   4 GROUP 4 **** **** 0

# MOE 2022.02 (io_trps.svl 2020.11)

@<TRIPOS>MOLECULE
FOD119
5 4 1 0 0 
SMALL
USER_CHARGES


@<TRIPOS>ATOM
  1 H        0.0630    -0.9370    -0.7610 H     1 <1>   0.0000 
  2 C        0.0510    -0.0130    -0.1800 C.3   1 <1>   0.3400 
  3 H        0.0220     0.8520    -0.8460 H     1 <1>   0.0000 
  4 H       -0.8120     0.0000     0.4890 H     1 <1>   0.0000 
  5 F        1.1820     0.0480     0.5660 F     1 <1>  -0.3400 
@<TRIPOS>BOND
  1   1   2  1   
  2   2   3  1   
  3   2   4  1   
  4   2   5  1   
@<TRIPOS>SUBSTRUCTURE
  1 ****   2 GROUP 4 **** **** 0

# MOE 2022.02 (io_trps.svl 2020.11)

@<TRIPOS>MOLECULE
FOD120
11 10 1 0 0 
SMALL
USER_CHARGES


@<TRIPOS>ATOM
  1 H        1.4210    -0.6680    -0.2700 H     1 <1>   0.0000 
  2 C        0.5100    -1.0010     0.2340 C.3   1 <1>   0.6800 
  3 F        0.5110    -0.4730     1.4800 F     1 <1>  -0.3400 
  4 F        0.5650    -2.3470     0.3740 F     1 <1>  -0.3400 
  5 C       -0.7160    -0.5990    -0.5390 C.3   1 <1>   0.3400 
  6 H       -0.7470    -1.1380    -1.4910 H     1 <1>   0.0000 
  7 F       -0.6520     0.7340    -0.8330 F     1 <1>  -0.3400 
  8 C       -1.9600    -0.9100     0.2520 C.3   1 <1>   1.0200 
  9 F       -2.0310    -0.2340     1.4160 F     1 <1>  -0.3400 
 10 F       -2.0590    -2.2300     0.5330 F     1 <1>  -0.3400 
 11 F       -3.0650    -0.5870    -0.4660 F     1 <1>  -0.3400 
@<TRIPOS>BOND
  1   1   2  1   
  2   2   3  1   
  3   2   4  1   
  4   2   5  1   
  5   5   6  1   
  6   5   7  1   
  7   5   8  1   
  8   8   9  1   
  9   8  10  1   
 10   8  11  1   
@<TRIPOS>SUBSTRUCTURE
  1 ****   5 GROUP 4 **** **** 0

# MOE 2022.02 (io_trps.svl 2020.11)

@<TRIPOS>MOLECULE
FOD121
6 5 1 0 0 
SMALL
USER_CHARGES


@<TRIPOS>ATOM
  1 H        0.4840    -0.7320     0.0000 H     1 <1>   0.1500 
  2 C        0.3840     0.3410     0.0000 C.2   1 <1>  -0.0010 
  3 F        1.5820     0.9530    -0.0010 F     1 <1>  -0.1500 
  4 C       -0.7600     1.0180    -0.0010 C.2   1 <1>   0.2990 
  5 F       -0.7450     2.3670    -0.0010 F     1 <1>  -0.1500 
  6 F       -1.9300     0.3460     0.0000 F     1 <1>  -0.1500 
@<TRIPOS>BOND
  1   1   2  1   
  2   2   3  1   
  3   2   4  2   
  4   4   5  1   
  5   4   6  1   
@<TRIPOS>SUBSTRUCTURE
  1 ****   4 GROUP 4 **** **** 0

# MOE 2022.02 (io_trps.svl 2020.11)

@<TRIPOS>MOLECULE
FOD122
15 14 1 0 0 
SMALL
USER_CHARGES


@<TRIPOS>ATOM
  1 H        0.2830    -1.1010    -0.0710 H     1 <1>   0.0000 
  2 C       -0.2990    -1.9600     0.2740 C.3   1 <1>   0.6200 
  3 H       -0.3410    -2.7390    -0.4920 H     1 <1>   0.0000 
  4 F        0.3280    -2.4770     1.3630 F     1 <1>  -0.3400 
  5 O       -1.5910    -1.5830     0.7060 O.3   1 <1>  -0.5600 
  6 C       -2.3060    -0.9780    -0.3510 C.3   1 <1>   0.9600 
  7 F       -1.6080     0.1280    -0.7200 F     1 <1>  -0.3400 
  8 F       -2.2990    -1.8160    -1.4130 F     1 <1>  -0.3400 
  9 C       -3.7060    -0.5760     0.0380 C.3   1 <1>   0.3400 
 10 H       -3.6830     0.1070     0.8940 H     1 <1>   0.0000 
 11 F       -4.3000     0.0950    -0.9960 F     1 <1>  -0.3400 
 12 C       -4.5040    -1.8020     0.3820 C.3   1 <1>   1.0200 
 13 F       -5.7750    -1.4600     0.7110 F     1 <1>  -0.3400 
 14 F       -3.9990    -2.4580     1.4500 F     1 <1>  -0.3400 
 15 F       -4.5800    -2.6800    -0.6390 F     1 <1>  -0.3400 
@<TRIPOS>BOND
  1   1   2  1   
  2   2   3  1   
  3   2   4  1   
  4   2   5  1   
  5   5   6  1   
  6   6   7  1   
  7   6   8  1   
  8   6   9  1   
  9   9  10  1   
 10   9  11  1   
 11   9  12  1   
 12  12  13  1   
 13  12  14  1   
 14  12  15  1   
@<TRIPOS>SUBSTRUCTURE
  1 ****   6 GROUP 4 **** **** 0

# MOE 2022.02 (io_trps.svl 2020.11)

@<TRIPOS>MOLECULE
FOD123
16 15 1 0 0 
SMALL
USER_CHARGES


@<TRIPOS>ATOM
  1 H       -0.2710     2.1900    -0.2780 H     1 <1>   0.1500 
  2 C        0.2350     1.2290    -0.3300 C.2   1 <1>  -0.0850 
  3 C        1.6520     1.2240    -0.2210 C.1   1 <1>  -0.0650 
  4 C        2.8490     1.2240    -0.1290 C.1   1 <1>  -0.2000 
  5 C        4.3070     1.2280    -0.0140 C.3   1 <1>   0.2000 
  6 H        4.7580     0.5800    -0.7720 H     1 <1>   0.0000 
  7 H        4.6200     0.8680     0.9710 H     1 <1>   0.0000 
  8 H        4.7050     2.2380    -0.1490 H     1 <1>   0.0000 
  9 C       -0.4520     0.0890    -0.4820 C.2   1 <1>  -0.0940 
 10 H        0.0750    -0.8590    -0.5330 H     1 <1>   0.1500 
 11 S       -2.2320     0.1710    -0.6340 S.o   1 <1>   0.2500 
 12 O       -2.6840     1.2850     0.2620 O.2   1 <1>  -0.5000 
 13 C       -2.6020    -1.3950     0.1930 C.3   1 <1>   0.1940 
 14 H       -2.1750    -1.3970     1.1990 H     1 <1>   0.0000 
 15 H       -3.6870    -1.5040     0.2610 H     1 <1>   0.0000 
 16 H       -2.1930    -2.2230    -0.3910 H     1 <1>   0.0000 
@<TRIPOS>BOND
  1   1   2  1   
  2   2   3  1   
  3   2   9  2   
  4   3   4  3   
  5   4   5  1   
  6   5   6  1   
  7   5   7  1   
  8   5   8  1   
  9   9  10  1   
 10   9  11  1   
 11  11  12  2   
 12  11  13  1   
 13  13  14  1   
 14  13  15  1   
 15  13  16  1   
@<TRIPOS>SUBSTRUCTURE
  1 ****   2 GROUP 4 **** **** 0

# MOE 2022.02 (io_trps.svl 2020.11)

@<TRIPOS>MOLECULE
FOD124
19 19 1 0 0 
SMALL
USER_CHARGES


@<TRIPOS>ATOM
  1 H        6.7080    -2.5430     0.5800 H     1 <1>   0.0600 
  2 C        6.5710    -1.7510    -0.1740 C.2   1 <1>   0.3800 
  3 S        7.7720    -1.1700    -1.1640 S.2   1 <1>  -0.3800 
  4 N        5.2990    -1.2610    -0.2440 N.am  1 <1>  -0.7300 
  5 H        5.1130    -0.5300    -0.9230 H     1 <1>   0.3700 
  6 C        4.2230    -1.7330     0.5960 C.3   1 <1>   0.4440 
  7 H        4.5160    -1.6010     1.6440 H     1 <1>   0.0000 
  8 H        4.1050    -2.8110     0.4350 H     1 <1>   0.0000 
  9 C        2.9450    -1.0010     0.2990 C.ar  1 <1>  -0.1440 
 10 C        2.6450     0.2010     0.9560 C.ar  1 <1>  -0.1500 
 11 H        3.3270     0.6050     1.7010 H     1 <1>   0.1500 
 12 C        1.4700     0.8950     0.6600 C.ar  1 <1>  -0.1500 
 13 H        1.2430     1.8240     1.1760 H     1 <1>   0.1500 
 14 C        0.5900     0.3990    -0.3010 C.ar  1 <1>  -0.1500 
 15 H       -0.3240     0.9400    -0.5320 H     1 <1>   0.1500 
 16 C        0.8860    -0.7870    -0.9700 C.ar  1 <1>  -0.1500 
 17 H        0.2030    -1.1690    -1.7240 H     1 <1>   0.1500 
 18 C        2.0590    -1.4820    -0.6750 C.ar  1 <1>  -0.1500 
 19 H        2.2810    -2.4020    -1.2130 H     1 <1>   0.1500 
@<TRIPOS>BOND
  1   1   2  1   
  2   2   3  2   
  3   2   4  am  
  4   4   5  1   
  5   4   6  1   
  6   6   7  1   
  7   6   8  1   
  8   6   9  1   
  9   9  10  ar  
 10   9  18  ar  
 11  10  11  1   
 12  10  12  ar  
 13  12  13  1   
 14  12  14  ar  
 15  14  15  1   
 16  14  16  ar  
 17  16  17  1   
 18  16  18  ar  
 19  18  19  1   
@<TRIPOS>SUBSTRUCTURE
  1 ****   9 GROUP 4 **** **** 0

# MOE 2022.02 (io_trps.svl 2020.11)

@<TRIPOS>MOLECULE
FOD125
25 24 1 0 0 
SMALL
USER_CHARGES


@<TRIPOS>ATOM
  1 H       -0.9910    -0.8240    -1.0070 H     1 <1>   0.4000 
  2 O       -0.8880    -1.2420    -0.1350 O.3   1 <1>  -0.6800 
  3 C        0.2430    -2.0320    -0.3120 C.3   1 <1>   0.8200 
  4 N        0.1400    -3.1310     0.5810 N.3   1 <1>  -0.9900 
  5 H       -0.8480    -3.3750     0.6030 H     1 <1>   0.3600 
  6 H        0.3100    -2.7690     1.5180 H     1 <1>   0.3600 
  7 N        0.1430    -2.6240    -1.5970 N.3   1 <1>  -0.9900 
  8 H       -0.7100    -3.1750    -1.5970 H     1 <1>   0.3600 
  9 H        0.8820    -3.3250    -1.6390 H     1 <1>   0.3600 
 10 C        1.5070    -1.1810    -0.1180 C.3   1 <1>   0.0000 
 11 H        1.4740    -0.7200     0.8790 H     1 <1>   0.0000 
 12 H        1.4690    -0.3400    -0.8220 H     1 <1>   0.0000 
 13 C        2.8360    -1.9340    -0.2840 C.3   1 <1>   0.0000 
 14 H        2.9350    -2.2860    -1.3180 H     1 <1>   0.0000 
 15 H        2.8270    -2.8250     0.3560 H     1 <1>   0.0000 
 16 C        4.0680    -1.0840     0.0860 C.3   1 <1>   0.0000 
 17 H        3.9500    -0.7210     1.1140 H     1 <1>   0.0000 
 18 C        4.2410     0.1270    -0.8330 C.3   1 <1>   0.0000 
 19 H        5.1610     0.6700    -0.5900 H     1 <1>   0.0000 
 20 H        3.4120     0.8320    -0.7230 H     1 <1>   0.0000 
 21 H        4.2960    -0.1760    -1.8840 H     1 <1>   0.0000 
 22 C        5.3290    -1.9510     0.0380 C.3   1 <1>   0.0000 
 23 H        5.5040    -2.3430    -0.9700 H     1 <1>   0.0000 
 24 H        5.2430    -2.8010     0.7230 H     1 <1>   0.0000 
 25 H        6.2110    -1.3730     0.3350 H     1 <1>   0.0000 
@<TRIPOS>BOND
  1   1   2  1   
  2   2   3  1   
  3   3   4  1   
  4   3   7  1   
  5   3  10  1   
  6   4   5  1   
  7   4   6  1   
  8   7   8  1   
  9   7   9  1   
 10  10  11  1   
 11  10  12  1   
 12  10  13  1   
 13  13  14  1   
 14  13  15  1   
 15  13  16  1   
 16  16  17  1   
 17  16  18  1   
 18  16  22  1   
 19  18  19  1   
 20  18  20  1   
 21  18  21  1   
 22  22  23  1   
 23  22  24  1   
 24  22  25  1   
@<TRIPOS>SUBSTRUCTURE
  1 ****  10 GROUP 4 **** **** 0

# MOE 2022.02 (io_trps.svl 2020.11)

@<TRIPOS>MOLECULE
FOD126
23 23 1 0 0 
SMALL
USER_CHARGES


@<TRIPOS>ATOM
  1 H        4.8410     1.5890    -1.2880 H     1 <1>   0.0600 
  2 C        4.9180     0.6780    -0.6720 C.2   1 <1>   0.5100 
  3 O        5.9960     0.1710    -0.3910 O.2   1 <1>  -0.5700 
  4 C        3.6460     0.0630    -0.2220 C.3   1 <1>  -0.1000 
  5 H        3.4530    -0.8760    -0.7270 H     1 <1>   0.1000 
  6 C        3.2770     0.0940     1.2410 C.3   1 <1>  -0.2000 
  7 H        3.9490     0.6030     1.9250 H     1 <1>   0.1000 
  8 H        2.8430    -0.8020     1.6720 H     1 <1>   0.1000 
  9 C        2.4680     0.9110     0.2560 C.3   1 <1>  -0.1900 
 10 C        2.6250     2.4150     0.3510 C.3   1 <1>   0.0950 
 11 H        2.4610     2.8730    -0.6300 H     1 <1>   0.0000 
 12 H        3.6190     2.7110     0.7020 H     1 <1>   0.0000 
 13 H        1.8920     2.8300     1.0520 H     1 <1>   0.0000 
 14 C        1.0270     0.4940    -0.0250 C.3   1 <1>   0.0950 
 15 H        0.6150     1.1730    -0.7830 H     1 <1>   0.0000 
 16 H        0.4450     0.6600     0.8910 H     1 <1>   0.0000 
 17 C        0.8090    -0.9400    -0.5070 C.3   1 <1>   0.0000 
 18 H        1.2260    -1.6570     0.2070 H     1 <1>   0.0000 
 19 H        1.3200    -1.0960    -1.4640 H     1 <1>   0.0000 
 20 C       -0.6710    -1.2420    -0.6940 C.3   1 <1>   0.0000 
 21 H       -1.1190    -0.5710    -1.4340 H     1 <1>   0.0000 
 22 H       -1.2170    -1.1300     0.2480 H     1 <1>   0.0000 
 23 H       -0.8060    -2.2710    -1.0440 H     1 <1>   0.0000 
@<TRIPOS>BOND
  1   1   2  1   
  2   2   3  2   
  3   2   4  1   
  4   4   5  1   
  5   4   6  1   
  6   4   9  1   
  7   6   7  1   
  8   6   8  1   
  9   6   9  1   
 10   9  10  1   
 11   9  14  1   
 12  10  11  1   
 13  10  12  1   
 14  10  13  1   
 15  14  15  1   
 16  14  16  1   
 17  14  17  1   
 18  17  18  1   
 19  17  19  1   
 20  17  20  1   
 21  20  21  1   
 22  20  22  1   
 23  20  23  1   
@<TRIPOS>SUBSTRUCTURE
  1 ****   9 GROUP 4 **** **** 0

# MOE 2022.02 (io_trps.svl 2020.11)

@<TRIPOS>MOLECULE
FOD127
11 11 1 0 0 
SMALL
USER_CHARGES


@<TRIPOS>ATOM
  1 H        3.9180     0.7620    -0.4140 H     1 <1>   0.3600 
  2 N        3.3400    -0.0600    -0.2450 N.3   1 <1>  -0.8780 
  3 H        3.8840    -0.6690     0.3660 H     1 <1>   0.3600 
  4 C        2.0810     0.3140     0.3870 C.3   1 <1>   0.0580 
  5 H        2.1800     0.8320     1.3390 H     1 <1>   0.1000 
  6 C        0.8980    -0.5960     0.2380 C.3   1 <1>  -0.2000 
  7 H        0.2250    -0.6980     1.0810 H     1 <1>   0.1000 
  8 H        1.0100    -1.4970    -0.3540 H     1 <1>   0.1000 
  9 C        0.9280     0.7210    -0.4830 C.3   1 <1>  -0.2000 
 10 H        0.2770     1.5100    -0.1260 H     1 <1>   0.1000 
 11 H        1.0610     0.7050    -1.5580 H     1 <1>   0.1000 
@<TRIPOS>BOND
  1   1   2  1   
  2   2   3  1   
  3   2   4  1   
  4   4   5  1   
  5   4   6  1   
  6   4   9  1   
  7   6   7  1   
  8   6   8  1   
  9   6   9  1   
 10   9  10  1   
 11   9  11  1   
@<TRIPOS>SUBSTRUCTURE
  1 ****   4 GROUP 4 **** **** 0

# MOE 2022.02 (io_trps.svl 2020.11)

@<TRIPOS>MOLECULE
FOD128
13 12 1 0 0 
SMALL
USER_CHARGES


@<TRIPOS>ATOM
  1 H       -2.0570     0.4240    -0.2650 H     1 <1>   0.0600 
  2 C       -2.0100    -0.6600    -0.0510 C.2   1 <1>   0.3290 
  3 N       -0.8930    -1.3020     0.0640 N.2   1 <1>  -0.5030 
  4 N        0.1980    -0.5180    -0.1110 N.pl3 1 <1>  -0.5280 
  5 H        0.1750    -0.0420    -0.9940 H     1 <1>   0.3110 
  6 C        1.4820    -1.1920     0.0400 C.3   1 <1>   0.2700 
  7 H        1.6110    -1.9640    -0.7250 H     1 <1>   0.0000 
  8 H        1.5640    -1.6560     1.0280 H     1 <1>   0.0000 
  9 H        2.2950    -0.4680    -0.0610 H     1 <1>   0.0000 
 10 C       -3.3180    -1.3690     0.1100 C.3   1 <1>   0.0610 
 11 H       -3.8680    -0.9130     0.9370 H     1 <1>   0.0000 
 12 H       -3.9010    -1.2490    -0.8060 H     1 <1>   0.0000 
 13 H       -3.1650    -2.4320     0.3130 H     1 <1>   0.0000 
@<TRIPOS>BOND
  1   1   2  1   
  2   2   3  2   
  3   2  10  1   
  4   3   4  1   
  5   4   5  1   
  6   4   6  1   
  7   6   7  1   
  8   6   8  1   
  9   6   9  1   
 10  10  11  1   
 11  10  12  1   
 12  10  13  1   
@<TRIPOS>SUBSTRUCTURE
  1 ****   3 GROUP 4 **** **** 0

# MOE 2022.02 (io_trps.svl 2020.11)

@<TRIPOS>MOLECULE
FOD129
17 16 1 0 0 
SMALL
USER_CHARGES


@<TRIPOS>ATOM
  1 H       11.5770     1.0560    -0.3440 H     1 <1>   0.0000 
  2 C       11.2090     0.0380    -0.1840 C.3   1 <1>   0.2000 
  3 H       11.6020    -0.5950    -0.9860 H     1 <1>   0.0000 
  4 H       11.6160    -0.3250     0.7640 H     1 <1>   0.0000 
  5 C        9.7480     0.0090    -0.1680 C.1   1 <1>  -0.2000 
  6 C        8.5470    -0.0150    -0.1550 C.1   1 <1>   0.0000 
  7 C        7.1150    -0.0460    -0.1380 C.1   1 <1>   0.0000 
  8 C        5.9150    -0.0750    -0.1250 C.1   1 <1>   0.0000 
  9 C        4.4840    -0.1150    -0.1070 C.1   1 <1>   0.0000 
 10 C        3.2840    -0.1550    -0.0920 C.1   1 <1>  -0.2000 
 11 C        1.8170    -0.2110    -0.0720 C.3   1 <1>   0.2000 
 12 H        1.4790    -0.7610     0.8130 H     1 <1>   0.0000 
 13 H        1.4550    -0.7580    -0.9500 H     1 <1>   0.0000 
 14 C        1.2100     1.1820    -0.0620 C.3   1 <1>   0.0000 
 15 H        1.5060     1.7490    -0.9520 H     1 <1>   0.0000 
 16 H        1.5330     1.7480     0.8180 H     1 <1>   0.0000 
 17 H        0.1170     1.1210    -0.0450 H     1 <1>   0.0000 
@<TRIPOS>BOND
  1   1   2  1   
  2   2   3  1   
  3   2   4  1   
  4   2   5  1   
  5   5   6  3   
  6   6   7  1   
  7   7   8  3   
  8   8   9  1   
  9   9  10  3   
 10  10  11  1   
 11  11  12  1   
 12  11  13  1   
 13  11  14  1   
 14  14  15  1   
 15  14  16  1   
 16  14  17  1   
@<TRIPOS>SUBSTRUCTURE
  1 ****   8 GROUP 4 **** **** 0

# MOE 2022.02 (io_trps.svl 2020.11)

@<TRIPOS>MOLECULE
FOD130
12 11 1 0 0 
SMALL
USER_CHARGES


@<TRIPOS>ATOM
  1 H        0.0870    -2.0800    -1.4180 H     1 <1>   0.0960 
  2 P       -0.2490    -1.3530    -0.2510 P.3   1 <1>  -0.3590 
  3 H       -1.1160    -0.4450    -0.9040 H     1 <1>   0.0960 
  4 C        1.2470    -0.2610    -0.2140 C.3   1 <1>   0.1670 
  5 H        1.3770     0.1750    -1.2120 H     1 <1>   0.0000 
  6 H        1.0500     0.5650     0.4780 H     1 <1>   0.0000 
  7 C        2.4970    -1.0290     0.2060 C.3   1 <1>   0.1670 
  8 H        2.6910    -1.8580    -0.4850 H     1 <1>   0.0000 
  9 H        2.3680    -1.4610     1.2050 H     1 <1>   0.0000 
 10 P        3.9950     0.0600     0.2320 P.3   1 <1>  -0.3590 
 11 H        4.8620    -0.8470     0.8860 H     1 <1>   0.0960 
 12 H        3.6630     0.7940     1.3960 H     1 <1>   0.0960 
@<TRIPOS>BOND
  1   1   2  1   
  2   2   3  1   
  3   2   4  1   
  4   4   5  1   
  5   4   6  1   
  6   4   7  1   
  7   7   8  1   
  8   7   9  1   
  9   7  10  1   
 10  10  11  1   
 11  10  12  1   
@<TRIPOS>SUBSTRUCTURE
  1 ****   7 GROUP 4 **** **** 0

# MOE 2022.02 (io_trps.svl 2020.11)

@<TRIPOS>MOLECULE
FOD131
25 26 1 0 0 
SMALL
USER_CHARGES


@<TRIPOS>ATOM
  1 H        0.5340     0.3210    -1.7750 H     1 <1>   0.1500 
  2 C        0.6900     1.0620    -0.9970 C.2   1 <1>  -0.0850 
  3 C        2.0170     1.5330    -0.8010 C.1   1 <1>  -0.0650 
  4 C        3.1370     1.9320    -0.6360 C.1   1 <1>   0.0000 
  5 C        4.4650     2.4240    -0.4240 C.1   1 <1>   0.0000 
  6 C        5.5740     2.8450    -0.2410 C.1   1 <1>  -0.2000 
  7 C        6.9240     3.3600    -0.0160 C.3   1 <1>   0.2000 
  8 H        7.6750     2.6780    -0.4250 H     1 <1>   0.0000 
  9 H        7.1210     3.4800     1.0540 H     1 <1>   0.0000 
 10 H        7.0530     4.3350    -0.4960 H     1 <1>   0.0000 
 11 C       -0.3600     1.4800    -0.2820 C.2   1 <1>   0.0770 
 12 O       -1.6390     0.9840    -0.5230 O.3   1 <1>  -0.3570 
 13 C       -2.5200     1.6610     0.4120 C.3   1 <1>   0.6980 
 14 O       -3.1610     0.7110     1.2980 O.3   1 <1>  -0.3570 
 15 C       -4.4730     0.6850     0.8780 C.2   1 <1>  -0.0730 
 16 H       -5.0900    -0.0530     1.3650 H     1 <1>   0.1500 
 17 C       -4.8170     1.5780    -0.0420 C.2   1 <1>  -0.2880 
 18 H       -5.8010     1.7040    -0.4650 H     1 <1>   0.1500 
 19 C       -3.6250     2.4020    -0.3660 C.3   1 <1>   0.1380 
 20 H       -3.7810     3.4270    -0.0120 H     1 <1>   0.0000 
 21 H       -3.4330     2.4220    -1.4440 H     1 <1>   0.0000 
 22 C       -1.6350     2.5550     1.2140 C.2   1 <1>  -0.2880 
 23 H       -1.9740     3.1820     2.0230 H     1 <1>   0.1500 
 24 C       -0.3820     2.4360     0.7850 C.2   1 <1>  -0.1500 
 25 H        0.4790     2.9540     1.1800 H     1 <1>   0.1500 
@<TRIPOS>BOND
  1   1   2  1   
  2   2   3  1   
  3   2  11  2   
  4   3   4  3   
  5   4   5  1   
  6   5   6  3   
  7   6   7  1   
  8   7   8  1   
  9   7   9  1   
 10   7  10  1   
 11  11  12  1   
 12  11  24  1   
 13  12  13  1   
 14  13  14  1   
 15  13  19  1   
 16  13  22  1   
 17  14  15  1   
 18  15  16  1   
 19  15  17  2   
 20  17  18  1   
 21  17  19  1   
 22  19  20  1   
 23  19  21  1   
 24  22  23  1   
 25  22  24  2   
 26  24  25  1   
@<TRIPOS>SUBSTRUCTURE
  1 ****  11 GROUP 4 **** **** 0

# MOE 2022.02 (io_trps.svl 2020.11)

@<TRIPOS>MOLECULE
FOD132
27 27 1 0 0 
SMALL
USER_CHARGES


@<TRIPOS>ATOM
  1 H        4.8540     3.6410     2.3780 H     1 <1>   0.4000 
  2 O        4.2740     3.3210     1.6630 O.3   1 <1>  -0.6800 
  3 C        4.8940     3.7760     0.4780 C.3   1 <1>   0.5600 
  4 H        5.0530     4.8570     0.5540 H     1 <1>   0.0000 
  5 O        6.1490     3.1340     0.4110 O.3   1 <1>  -0.6800 
  6 H        5.9880     2.2200     0.1230 H     1 <1>   0.4000 
  7 C        4.0370     3.4220    -0.7210 C.3   1 <1>   0.0610 
  8 H        3.7110     2.3760    -0.7000 H     1 <1>   0.0000 
  9 H        4.5970     3.5570    -1.6540 H     1 <1>   0.0000 
 10 C        2.8230     4.3180    -0.7520 C.2   1 <1>   0.4480 
 11 O        2.8140     5.3230    -1.4680 O.2   1 <1>  -0.5700 
 12 C        1.6680     3.9590     0.1880 C.3   1 <1>   0.3310 
 13 H        1.7230     4.6140     1.0660 H     1 <1>   0.0000 
 14 H        1.8110     2.9280     0.5310 H     1 <1>   0.0000 
 15 N        0.3830     4.0230    -0.5300 N.3   1 <1>  -0.6890 
 16 C       -0.0660     5.4380    -0.6670 C.3   1 <1>   0.2100 
 17 H        0.0030     5.8340    -1.6850 H     1 <1>   0.0000 
 18 H        0.3870     6.1610     0.0220 H     1 <1>   0.0000 
 19 C       -1.4840     4.9880    -0.2470 C.3   1 <1>   0.2580 
 20 H       -2.1070     4.6990    -1.1040 H     1 <1>   0.0000 
 21 O       -2.2130     5.8760     0.6270 O.3   1 <1>  -0.6580 
 22 H       -3.0180     5.3820     0.8670 H     1 <1>   0.4000 
 23 C       -0.7500     3.7930     0.4220 C.3   1 <1>   0.2630 
 24 H       -0.5120     3.9900     1.4770 H     1 <1>   0.0000 
 25 C       -1.4100     2.4010     0.2540 C.2   1 <1>   0.4570 
 26 H       -0.8600     1.6970    -0.3940 H     1 <1>   0.0600 
 27 O       -2.4660     2.0380     0.7770 O.2   1 <1>  -0.5700 
@<TRIPOS>BOND
  1   1   2  1   
  2   2   3  1   
  3   3   4  1   
  4   3   5  1   
  5   3   7  1   
  6   5   6  1   
  7   7   8  1   
  8   7   9  1   
  9   7  10  1   
 10  10  11  2   
 11  10  12  1   
 12  12  13  1   
 13  12  14  1   
 14  12  15  1   
 15  15  16  1   
 16  15  23  1   
 17  16  17  1   
 18  16  18  1   
 19  16  19  1   
 20  19  20  1   
 21  19  21  1   
 22  19  23  1   
 23  21  22  1   
 24  23  24  1   
 25  23  25  1   
 26  25  26  1   
 27  25  27  2   
@<TRIPOS>SUBSTRUCTURE
  1 ****  12 GROUP 4 **** **** 0

# MOE 2022.02 (io_trps.svl 2020.11)

@<TRIPOS>MOLECULE
FOD133
12 11 1 0 0 
SMALL
USER_CHARGES


@<TRIPOS>ATOM
  1 H       -0.4150    -0.3790    -0.9470 H     1 <1>   0.4000 
  2 O        0.3810    -0.9050    -0.7540 O.3   1 <1>  -0.6800 
  3 C        1.1720    -0.1650     0.1810 C.3   1 <1>   0.2800 
  4 H        0.5520     0.0030     1.0690 H     1 <1>   0.0000 
  5 C        1.5420     1.1720    -0.4520 C.3   1 <1>   0.0000 
  6 H        2.1430     1.0220    -1.3560 H     1 <1>   0.0000 
  7 H        2.0980     1.8120     0.2370 H     1 <1>   0.0000 
  8 H        0.6390     1.7090    -0.7640 H     1 <1>   0.0000 
  9 C        2.3930    -1.0100     0.5520 C.3   1 <1>   0.2900 
 10 H        3.0470    -1.1570    -0.3140 H     1 <1>   0.0000 
 11 H        2.0790    -2.0050     0.8860 H     1 <1>   0.0000 
 12 CL       3.3500    -0.2770     1.8590 Cl    1 <1>  -0.2900 
@<TRIPOS>BOND
  1   1   2  1   
  2   2   3  1   
  3   3   4  1   
  4   3   5  1   
  5   3   9  1   
  6   5   6  1   
  7   5   7  1   
  8   5   8  1   
  9   9  10  1   
 10   9  11  1   
 11   9  12  1   
@<TRIPOS>SUBSTRUCTURE
  1 ****   3 GROUP 4 **** **** 0

# MOE 2022.02 (io_trps.svl 2020.11)

@<TRIPOS>MOLECULE
FOD134
19 18 1 0 0 
SMALL
USER_CHARGES


@<TRIPOS>ATOM
  1 H       -0.4390     0.5510     1.5930 H     1 <1>   0.0600 
  2 C        0.3470     1.0180     0.9800 C.2   1 <1>   0.5100 
  3 O        0.4800     2.2210     0.8330 O.2   1 <1>  -0.5700 
  4 C        1.3040     0.0480     0.3250 C.2   1 <1>   0.3890 
  5 N        0.9200    -0.9900    -0.3410 N.2   1 <1>  -0.6960 
  6 C       -0.5050    -1.2300    -0.5120 C.3   1 <1>   0.2460 
  7 H       -1.0250    -0.3520    -0.9090 H     1 <1>   0.0000 
  8 H       -0.9680    -1.5420     0.4300 H     1 <1>   0.0000 
  9 H       -0.6450    -2.0420    -1.2320 H     1 <1>   0.0000 
 10 C        2.7810     0.3710     0.4800 C.3   1 <1>   0.0610 
 11 H        2.8900     1.1380     1.2570 H     1 <1>   0.0000 
 12 C        3.5640    -0.8610     0.9260 C.3   1 <1>   0.0000 
 13 H        3.1430    -1.2750     1.8480 H     1 <1>   0.0000 
 14 H        3.5420    -1.6520     0.1680 H     1 <1>   0.0000 
 15 H        4.6120    -0.6060     1.1160 H     1 <1>   0.0000 
 16 C        3.3240     0.9260    -0.8320 C.3   1 <1>   0.0000 
 17 H        3.2520     0.1900    -1.6400 H     1 <1>   0.0000 
 18 H        4.3760     1.2140    -0.7280 H     1 <1>   0.0000 
 19 H        2.7600     1.8120    -1.1440 H     1 <1>   0.0000 
@<TRIPOS>BOND
  1   1   2  1   
  2   2   3  2   
  3   2   4  1   
  4   4   5  2   
  5   4  10  1   
  6   5   6  1   
  7   6   7  1   
  8   6   8  1   
  9   6   9  1   
 10  10  11  1   
 11  10  12  1   
 12  10  16  1   
 13  12  13  1   
 14  12  14  1   
 15  12  15  1   
 16  16  17  1   
 17  16  18  1   
 18  16  19  1   
@<TRIPOS>SUBSTRUCTURE
  1 ****   4 GROUP 4 **** **** 0

# MOE 2022.02 (io_trps.svl 2020.11)

@<TRIPOS>MOLECULE
FOD135
27 27 1 0 0 
SMALL
USER_CHARGES


@<TRIPOS>ATOM
  1 H       11.0180    -1.4010     0.5320 H     1 <1>   0.0600 
  2 C       11.0800    -2.2330    -0.1880 C.2   1 <1>   0.4960 
  3 O       12.1390    -2.5780    -0.6980 O.2   1 <1>  -0.5700 
  4 C        9.8140    -2.9200    -0.5100 C.2   1 <1>  -0.1360 
  5 H        9.8810    -3.7370    -1.2180 H     1 <1>   0.1500 
  6 C        8.6690    -2.5260     0.0640 C.2   1 <1>  -0.1500 
  7 H        8.6600    -1.6980     0.7700 H     1 <1>   0.1500 
  8 C        7.4010    -3.1650    -0.2130 C.2   1 <1>  -0.1500 
  9 H        7.4040    -3.9930    -0.9200 H     1 <1>   0.1500 
 10 C        6.2500    -2.7810     0.3610 C.2   1 <1>  -0.1500 
 11 H        6.2410    -1.9550     1.0700 H     1 <1>   0.1500 
 12 C        4.9840    -3.4220     0.0870 C.2   1 <1>  -0.1500 
 13 H        4.9820    -4.2480    -0.6220 H     1 <1>   0.1500 
 14 C        3.8350    -3.0390     0.6650 C.2   1 <1>  -0.2880 
 15 H        3.8260    -2.2150     1.3780 H     1 <1>   0.1500 
 16 C        2.5000    -3.6860     0.4060 C.3   1 <1>   0.2330 
 17 H        2.1490    -4.0970     1.3620 H     1 <1>   0.0000 
 18 H        2.6310    -4.5450    -0.2640 H     1 <1>   0.0000 
 19 C        1.4010    -2.8170    -0.1660 C.3   1 <1>  -0.0420 
 20 C        0.0640    -3.4740    -0.3320 C.3   1 <1>   0.0950 
 21 H       -0.6940    -2.7720    -0.6970 H     1 <1>   0.0000 
 22 H        0.1340    -4.2970    -1.0510 H     1 <1>   0.0000 
 23 H       -0.2870    -3.8790     0.6220 H     1 <1>   0.0000 
 24 O        1.3200    -1.5000     0.4020 O.3   1 <1>  -0.2960 
 25 C        1.7100    -1.5770    -0.9790 C.3   1 <1>  -0.0520 
 26 H        2.7380    -1.3390    -1.2250 H     1 <1>   0.1000 
 27 H        0.9940    -1.2410    -1.7190 H     1 <1>   0.1000 
@<TRIPOS>BOND
  1   1   2  1   
  2   2   3  2   
  3   2   4  1   
  4   4   5  1   
  5   4   6  2   
  6   6   7  1   
  7   6   8  1   
  8   8   9  1   
  9   8  10  2   
 10  10  11  1   
 11  10  12  1   
 12  12  13  1   
 13  12  14  2   
 14  14  15  1   
 15  14  16  1   
 16  16  17  1   
 17  16  18  1   
 18  16  19  1   
 19  19  20  1   
 20  19  24  1   
 21  19  25  1   
 22  20  21  1   
 23  20  22  1   
 24  20  23  1   
 25  24  25  1   
 26  25  26  1   
 27  25  27  1   
@<TRIPOS>SUBSTRUCTURE
  1 ****  12 GROUP 4 **** **** 0

# MOE 2022.02 (io_trps.svl 2020.11)

@<TRIPOS>MOLECULE
FOD136
24 24 1 0 0 
SMALL
USER_CHARGES


@<TRIPOS>ATOM
  1 H        0.0250     2.2580     0.3560 H     1 <1>   0.1500 
  2 C       -0.8980     1.6990     0.4950 C.2   1 <1>  -0.1500 
  3 C       -0.8500     0.3560     0.6000 C.2   1 <1>   0.1710 
  4 C        0.4150    -0.3610     0.5490 C.2   1 <1>  -0.1500 
  5 H        0.5090    -1.1640     1.2780 H     1 <1>   0.1500 
  6 C        1.4100    -0.1370    -0.3260 C.2   1 <1>  -0.2880 
  7 H        1.3100     0.6390    -1.0820 H     1 <1>   0.1500 
  8 C        2.6830    -0.9170    -0.3490 C.3   1 <1>   0.1380 
  9 H        2.7990    -1.4130    -1.3180 H     1 <1>   0.0000 
 10 H        2.7140    -1.6840     0.4320 H     1 <1>   0.0000 
 11 H        3.5340    -0.2450    -0.2020 H     1 <1>   0.0000 
 12 N       -1.8930    -0.4860     0.9010 N.2   1 <1>  -0.6210 
 13 C       -3.0750    -0.2980     0.3930 C.2   1 <1>   0.3280 
 14 C       -4.1620    -1.2690     0.7910 C.3   1 <1>   0.0610 
 15 H       -4.9810    -0.7200     1.2630 H     1 <1>   0.0000 
 16 H       -4.5350    -1.7780    -0.1010 H     1 <1>   0.0000 
 17 H       -3.7790    -2.0140     1.4950 H     1 <1>   0.0000 
 18 C       -3.4710     0.8060    -0.5780 C.3   1 <1>   0.1990 
 19 H       -4.5290     0.6910    -0.8370 H     1 <1>   0.0000 
 20 H       -2.8980     0.7110    -1.5060 H     1 <1>   0.0000 
 21 C       -3.2640     2.1440     0.0610 C.2   1 <1>  -0.2880 
 22 H       -4.1110     2.8210     0.1100 H     1 <1>   0.1500 
 23 C       -2.0840     2.5230     0.5710 C.2   1 <1>  -0.1500 
 24 H       -1.9680     3.5090     1.0140 H     1 <1>   0.1500 
@<TRIPOS>BOND
  1   1   2  1   
  2   2   3  2   
  3   2  23  1   
  4   3   4  1   
  5   3  12  1   
  6   4   5  1   
  7   4   6  2   
  8   6   7  1   
  9   6   8  1   
 10   8   9  1   
 11   8  10  1   
 12   8  11  1   
 13  12  13  2   
 14  13  14  1   
 15  13  18  1   
 16  14  15  1   
 17  14  16  1   
 18  14  17  1   
 19  18  19  1   
 20  18  20  1   
 21  18  21  1   
 22  21  22  1   
 23  21  23  2   
 24  23  24  1   
@<TRIPOS>SUBSTRUCTURE
  1 ****   3 GROUP 4 **** **** 0

# MOE 2022.02 (io_trps.svl 2020.11)

@<TRIPOS>MOLECULE
FOD137
19 19 1 0 0 
SMALL
USER_CHARGES


@<TRIPOS>ATOM
  1 H        8.7650     0.4380     0.2620 H     1 <1>   0.4000 
  2 N        7.8540     0.9090     0.2640 N.2   1 <1>  -0.8500 
  3 C        6.9580     0.0020     0.1540 C.2   1 <1>   0.6410 
  4 S        7.3870    -1.7140     0.0280 S.3   1 <1>  -0.2420 
  5 C        5.6840    -2.1480    -0.0810 C.2   1 <1>  -0.0490 
  6 H        5.3530    -3.1730    -0.1830 H     1 <1>   0.1500 
  7 C        4.9000    -1.0570    -0.0250 C.2   1 <1>   0.1140 
  8 C        3.4140    -1.1290    -0.1090 C.2   1 <1>   0.4360 
  9 N        2.7870    -2.2700    -0.0720 N.2   1 <1>  -0.5130 
 10 O        1.3960    -2.1120    -0.1470 O.3   1 <1>  -0.2170 
 11 C        0.7900    -3.3980    -0.0540 C.3   1 <1>   0.2800 
 12 H       -0.2940    -3.2740    -0.1180 H     1 <1>   0.0000 
 13 H        1.1230    -4.0340    -0.8800 H     1 <1>   0.0000 
 14 H        1.0370    -3.8640     0.9050 H     1 <1>   0.0000 
 15 C        2.6760     0.1900    -0.2530 C.2   1 <1>   0.5100 
 16 H        1.7090     0.1370    -0.7750 H     1 <1>   0.0600 
 17 O        3.1580     1.2370     0.1600 O.2   1 <1>  -0.5700 
 18 N        5.6060     0.1220     0.1100 N.pl3 1 <1>  -0.5500 
 19 H        5.1300     1.0170     0.1830 H     1 <1>   0.4000 
@<TRIPOS>BOND
  1   1   2  1   
  2   2   3  2   
  3   3   4  1   
  4   3  18  1   
  5   4   5  1   
  6   5   6  1   
  7   5   7  2   
  8   7   8  1   
  9   7  18  1   
 10   8   9  2   
 11   8  15  1   
 12   9  10  1   
 13  10  11  1   
 14  11  12  1   
 15  11  13  1   
 16  11  14  1   
 17  15  16  1   
 18  15  17  2   
 19  18  19  1   
@<TRIPOS>SUBSTRUCTURE
  1 ****   7 GROUP 4 **** **** 0

# MOE 2022.02 (io_trps.svl 2020.11)

@<TRIPOS>MOLECULE
FOD138
20 20 1 0 0 
SMALL
USER_CHARGES


@<TRIPOS>ATOM
  1 H       -1.4760    -1.6420    -0.4870 H     1 <1>   0.4000 
  2 O       -0.5110    -1.5540    -0.5560 O.3   1 <1>  -0.6800 
  3 C        0.0470    -2.6300     0.1880 C.3   1 <1>   0.4240 
  4 H       -0.3530    -3.5620    -0.2240 H     1 <1>   0.0000 
  5 H       -0.2640    -2.5350     1.2330 H     1 <1>   0.0000 
  6 C        1.5500    -2.6240     0.1080 C.ar  1 <1>  -0.1440 
  7 C        2.2610    -3.8230     0.2420 C.ar  1 <1>  -0.1500 
  8 H        1.7350    -4.7660     0.3710 H     1 <1>   0.1500 
  9 C        3.6610    -3.8310     0.2110 C.ar  1 <1>  -0.1500 
 10 H        4.1830    -4.7780     0.3190 H     1 <1>   0.1500 
 11 C        4.3890    -2.6460     0.0580 C.ar  1 <1>   0.1000 
 12 N        5.7930    -2.6150     0.0160 N.pl3 1 <1>  -0.5110 
 13 H        6.2330    -1.7010    -0.0740 H     1 <1>   0.4000 
 14 N        6.5480    -3.7810     0.0780 N.3   1 <1>  -0.7090 
 15 H        6.7200    -4.1380    -0.8640 H     1 <1>   0.3600 
 16 H        7.4620    -3.6060     0.4970 H     1 <1>   0.3600 
 17 C        3.6740    -1.4480    -0.0620 C.ar  1 <1>  -0.1500 
 18 H        4.1990    -0.5040    -0.1810 H     1 <1>   0.1500 
 19 C        2.2740    -1.4350    -0.0320 C.ar  1 <1>  -0.1500 
 20 H        1.7500    -0.4860    -0.1250 H     1 <1>   0.1500 
@<TRIPOS>BOND
  1   1   2  1   
  2   2   3  1   
  3   3   4  1   
  4   3   5  1   
  5   3   6  1   
  6   6   7  ar  
  7   6  19  ar  
  8   7   8  1   
  9   7   9  ar  
 10   9  10  1   
 11   9  11  ar  
 12  11  12  1   
 13  11  17  ar  
 14  12  13  1   
 15  12  14  1   
 16  14  15  1   
 17  14  16  1   
 18  17  18  1   
 19  17  19  ar  
 20  19  20  1   
@<TRIPOS>SUBSTRUCTURE
  1 ****  17 GROUP 4 **** **** 0

# MOE 2022.02 (io_trps.svl 2020.11)

@<TRIPOS>MOLECULE
FOD139
15 15 1 0 0 
SMALL
USER_CHARGES


@<TRIPOS>ATOM
  1 H        0.4810     3.4470    -0.0450 H     1 <1>   0.1500 
  2 C       -0.0660     2.5160     0.0600 C.ar  1 <1>  -0.1500 
  3 C       -1.4490     2.4780    -0.1150 C.ar  1 <1>  -0.1500 
  4 H       -1.9820     3.3940    -0.3610 H     1 <1>   0.1500 
  5 C       -2.1480     1.2690     0.0250 C.ar  1 <1>  -0.1440 
  6 C       -3.6350     1.2400    -0.1700 C.3   1 <1>   0.1440 
  7 H       -3.8870     1.5340    -1.1940 H     1 <1>   0.0000 
  8 H       -4.1210     1.9260     0.5320 H     1 <1>   0.0000 
  9 H       -4.0440     0.2390     0.0040 H     1 <1>   0.0000 
 10 C       -1.4410     0.1000     0.3390 C.ar  1 <1>  -0.1500 
 11 H       -1.9630    -0.8480     0.4500 H     1 <1>   0.1500 
 12 C       -0.0570     0.1400     0.5140 C.ar  1 <1>  -0.1500 
 13 H        0.4980    -0.7600     0.7590 H     1 <1>   0.1500 
 14 C        0.6170     1.3470     0.3740 C.ar  1 <1>   0.1900 
 15 F        1.9460     1.3840     0.5420 F     1 <1>  -0.1900 
@<TRIPOS>BOND
  1   1   2  1   
  2   2   3  ar  
  3   2  14  ar  
  4   3   4  1   
  5   3   5  ar  
  6   5   6  1   
  7   5  10  ar  
  8   6   7  1   
  9   6   8  1   
 10   6   9  1   
 11  10  11  1   
 12  10  12  ar  
 13  12  13  1   
 14  12  14  ar  
 15  14  15  1   
@<TRIPOS>SUBSTRUCTURE
  1 ****   5 GROUP 4 **** **** 0

# MOE 2022.02 (io_trps.svl 2020.11)

@<TRIPOS>MOLECULE
FOD140
40 42 1 0 0 
SMALL
USER_CHARGES


@<TRIPOS>ATOM
  1 H        4.1390     3.4640     0.9930 H     1 <1>   0.4000 
  2 N        3.3770     2.7850     0.8700 N.2   1 <1>  -0.8500 
  3 C        3.9050     1.6540     0.5410 C.2   1 <1>   0.5390 
  4 O        5.2470     1.6050     0.4920 O.3   1 <1>  -0.2270 
  5 C        5.9880     0.4200     0.2860 C.2   1 <1>  -0.0610 
  6 C        7.3140     0.5400     0.1080 C.2   1 <1>  -0.2880 
  7 H        7.7530     1.5380     0.1190 H     1 <1>   0.1500 
  8 C        8.2660    -0.6170    -0.1480 C.3   1 <1>   0.1380 
  9 C        8.8090    -0.4820    -1.5820 C.3   1 <1>   0.0000 
 10 H        8.0050    -0.5300    -2.3260 H     1 <1>   0.0000 
 11 H        9.5210    -1.2840    -1.8120 H     1 <1>   0.0000 
 12 H        9.3320     0.4720    -1.7240 H     1 <1>   0.0000 
 13 C        9.4410    -0.5350     0.8400 C.3   1 <1>   0.0000 
 14 H       10.1480    -1.3570     0.6790 H     1 <1>   0.0000 
 15 H        9.9950     0.4040     0.7290 H     1 <1>   0.0000 
 16 H        9.0940    -0.5930     1.8790 H     1 <1>   0.0000 
 17 C        7.5650    -1.9780     0.0210 C.3   1 <1>   0.0610 
 18 H        7.5070    -2.2810     1.0740 H     1 <1>   0.0000 
 19 H        8.0910    -2.7780    -0.5130 H     1 <1>   0.0000 
 20 C        6.1480    -1.8700    -0.4940 C.2   1 <1>   0.4480 
 21 O        5.7800    -2.5110    -1.4760 O.2   1 <1>  -0.5700 
 22 C        5.2540    -0.8940     0.2810 C.3   1 <1>   0.1990 
 23 H        5.1900    -1.2560     1.3150 H     1 <1>   0.0000 
 24 C        3.8520    -0.7510    -0.3280 C.3   1 <1>   0.1440 
 25 H        3.9750    -0.5370    -1.4020 H     1 <1>   0.0000 
 26 C        3.0440    -2.0460    -0.1870 C.ar  1 <1>  -0.1440 
 27 C        2.7590    -2.6160     1.0650 C.ar  1 <1>  -0.1500 
 28 H        3.1080    -2.1590     1.9870 H     1 <1>   0.1500 
 29 C        2.0090    -3.7910     1.1580 C.ar  1 <1>  -0.1500 
 30 H        1.7920    -4.2230     2.1320 H     1 <1>   0.1500 
 31 C        1.5340    -4.4110     0.0060 C.ar  1 <1>  -0.1500 
 32 H        0.9520    -5.3260     0.0790 H     1 <1>   0.1500 
 33 C        1.8090    -3.8590    -1.2420 C.ar  1 <1>  -0.1500 
 34 H        1.4440    -4.3430    -2.1440 H     1 <1>   0.1500 
 35 C        2.5570    -2.6840    -1.3390 C.ar  1 <1>  -0.1500 
 36 H        2.7650    -2.2780    -2.3270 H     1 <1>   0.1500 
 37 C        3.0790     0.4180     0.3140 C.3   1 <1>   0.2610 
 38 H        2.7160     0.1330     1.3110 H     1 <1>   0.0000 
 39 C        1.9130     0.7640    -0.5260 C.1   1 <1>   0.3570 
 40 N        1.0040     0.9990    -1.2100 N.1   1 <1>  -0.5570 
@<TRIPOS>BOND
  1   1   2  1   
  2   2   3  2   
  3   3   4  1   
  4   3  37  1   
  5   4   5  1   
  6   5   6  2   
  7   5  22  1   
  8   6   7  1   
  9   6   8  1   
 10   8   9  1   
 11   8  13  1   
 12   8  17  1   
 13   9  10  1   
 14   9  11  1   
 15   9  12  1   
 16  13  14  1   
 17  13  15  1   
 18  13  16  1   
 19  17  18  1   
 20  17  19  1   
 21  17  20  1   
 22  20  21  2   
 23  20  22  1   
 24  22  23  1   
 25  22  24  1   
 26  24  25  1   
 27  24  26  1   
 28  24  37  1   
 29  26  27  ar  
 30  26  35  ar  
 31  27  28  1   
 32  27  29  ar  
 33  29  30  1   
 34  29  31  ar  
 35  31  32  1   
 36  31  33  ar  
 37  33  34  1   
 38  33  35  ar  
 39  35  36  1   
 40  37  38  1   
 41  37  39  1   
 42  39  40  3   
@<TRIPOS>SUBSTRUCTURE
  1 ****  24 GROUP 4 **** **** 0

# MOE 2022.02 (io_trps.svl 2020.11)

@<TRIPOS>MOLECULE
FOD141
27 26 1 0 0 
SMALL
USER_CHARGES


@<TRIPOS>ATOM
  1 H        5.7450    -0.6230     0.5730 H     1 <1>   0.0600 
  2 C        6.5360     0.1200     0.3750 C.2   1 <1>   0.4490 
  3 O        7.6960    -0.1170     0.7080 O.2   1 <1>  -0.5700 
  4 C        6.0710     1.4600    -0.1840 C.3   1 <1>   0.3610 
  5 H        5.9310     2.1320     0.6700 H     1 <1>   0.0000 
  6 N        4.7810     1.2920    -0.8330 N.am  1 <1>  -0.7300 
  7 H        4.7080     1.2130    -1.8390 H     1 <1>   0.3700 
  8 C        3.6110     1.2360    -0.1400 C.2   1 <1>   0.7800 
  9 O        3.5290     1.2760     1.0760 O.2   1 <1>  -0.5700 
 10 O        2.5930     1.1040    -1.0150 O.3   1 <1>  -0.4300 
 11 C        1.2220     1.0050    -0.5490 C.3   1 <1>   0.2800 
 12 C        0.7910     2.2760     0.1900 C.3   1 <1>   0.0000 
 13 H        1.3100     2.3880     1.1470 H     1 <1>   0.0000 
 14 H        1.0260     3.1690    -0.4010 H     1 <1>   0.0000 
 15 H       -0.2840     2.2700     0.4000 H     1 <1>   0.0000 
 16 C        1.0160    -0.2520     0.3050 C.3   1 <1>   0.0000 
 17 H        1.4110    -1.1370    -0.2060 H     1 <1>   0.0000 
 18 H       -0.0450    -0.4180     0.5200 H     1 <1>   0.0000 
 19 H        1.5370    -0.1840     1.2640 H     1 <1>   0.0000 
 20 C        0.3830     0.8720    -1.8290 C.3   1 <1>   0.0000 
 21 H       -0.6860     0.7880    -1.6080 H     1 <1>   0.0000 
 22 H        0.5340     1.7380    -2.4850 H     1 <1>   0.0000 
 23 H        0.6880    -0.0090    -2.4050 H     1 <1>   0.0000 
 24 C        7.0940     2.0380    -1.1490 C.3   1 <1>   0.0000 
 25 H        8.0540     2.2070    -0.6510 H     1 <1>   0.0000 
 26 H        7.2700     1.3610    -1.9920 H     1 <1>   0.0000 
 27 H        6.7490     2.9950    -1.5560 H     1 <1>   0.0000 
@<TRIPOS>BOND
  1   1   2  1   
  2   2   3  2   
  3   2   4  1   
  4   4   5  1   
  5   4   6  1   
  6   4  24  1   
  7   6   7  1   
  8   6   8  am  
  9   8   9  2   
 10   8  10  1   
 11  10  11  1   
 12  11  12  1   
 13  11  16  1   
 14  11  20  1   
 15  12  13  1   
 16  12  14  1   
 17  12  15  1   
 18  16  17  1   
 19  16  18  1   
 20  16  19  1   
 21  20  21  1   
 22  20  22  1   
 23  20  23  1   
 24  24  25  1   
 25  24  26  1   
 26  24  27  1   
@<TRIPOS>SUBSTRUCTURE
  1 ****   8 GROUP 4 **** **** 0

# MOE 2022.02 (io_trps.svl 2020.11)

@<TRIPOS>MOLECULE
FOD142
17 16 1 0 0 
SMALL
USER_CHARGES


@<TRIPOS>ATOM
  1 H       -0.3540    -1.2600    -1.0550 H     1 <1>   0.4000 
  2 N        0.3700    -0.6650    -0.6540 N.2   1 <1>  -0.8500 
  3 C        1.4180    -1.3730    -0.3990 C.2   1 <1>   0.5500 
  4 N        1.4200    -2.6850    -0.6890 N.pl3 1 <1>  -0.8500 
  5 H        0.6250    -3.1060    -1.1470 H     1 <1>   0.4000 
  6 H        2.1750    -3.3070    -0.4600 H     1 <1>   0.4000 
  7 N        2.5440    -0.8280     0.1500 N.pl3 1 <1>  -0.7880 
  8 C        2.5250     0.5890     0.5180 C.3   1 <1>   0.3690 
  9 H        3.4840     0.9250     0.9290 H     1 <1>   0.0000 
 10 H        2.3140     1.2100    -0.3590 H     1 <1>   0.0000 
 11 H        1.7580     0.7750     1.2780 H     1 <1>   0.0000 
 12 C        3.8110    -1.5170     0.3780 C.3   1 <1>   0.4300 
 13 H        4.3810    -1.0490     1.1880 H     1 <1>   0.0000 
 14 H        3.6600    -2.5610     0.6690 H     1 <1>   0.0000 
 15 C        4.6460    -1.4830    -0.8830 C.2   1 <1>   0.4490 
 16 H        4.1090    -1.7010    -1.8220 H     1 <1>   0.0600 
 17 O        5.8640    -1.3200    -0.8850 O.2   1 <1>  -0.5700 
@<TRIPOS>BOND
  1   1   2  1   
  2   2   3  2   
  3   3   4  1   
  4   3   7  1   
  5   4   5  1   
  6   4   6  1   
  7   7   8  1   
  8   7  12  1   
  9   8   9  1   
 10   8  10  1   
 11   8  11  1   
 12  12  13  1   
 13  12  14  1   
 14  12  15  1   
 15  15  16  1   
 16  15  17  2   
@<TRIPOS>SUBSTRUCTURE
  1 ****   7 GROUP 4 **** **** 0

# MOE 2022.02 (io_trps.svl 2020.11)

@<TRIPOS>MOLECULE
FOD143
28 28 1 0 0 
SMALL
USER_CHARGES


@<TRIPOS>ATOM
  1 H        2.4690     2.1460    -1.1610 H     1 <1>   0.4000 
  2 N        1.8200     1.4560    -0.7740 N.2   1 <1>  -0.8500 
  3 C        2.4460     0.4080    -0.3430 C.2   1 <1>   0.3750 
  4 C        3.9300     0.3300    -0.4160 C.2   1 <1>  -0.1360 
  5 H        4.4650     1.2400    -0.6590 H     1 <1>   0.1500 
  6 C        4.5670    -0.8250    -0.1710 C.2   1 <1>  -0.2760 
  7 C        6.0660    -0.9140    -0.1910 C.3   1 <1>   0.1380 
  8 H        6.4390    -1.2650     0.7770 H     1 <1>   0.0000 
  9 H        6.5340     0.0540    -0.3980 H     1 <1>   0.0000 
 10 H        6.3950    -1.6150    -0.9660 H     1 <1>   0.0000 
 11 C        3.8390    -2.1060     0.1350 C.3   1 <1>   0.1380 
 12 H        4.2940    -2.9350    -0.4220 H     1 <1>   0.0000 
 13 H        3.9590    -2.3310     1.2020 H     1 <1>   0.0000 
 14 C        2.3500    -2.0580    -0.2140 C.3   1 <1>   0.0000 
 15 H        2.2290    -2.1320    -1.3030 H     1 <1>   0.0000 
 16 H        1.8820    -2.9450     0.2250 H     1 <1>   0.0000 
 17 C        1.6850    -0.7680     0.2950 C.3   1 <1>   0.0610 
 18 H        1.8530    -0.7010     1.3790 H     1 <1>   0.0000 
 19 C        0.1510    -0.7100     0.0290 C.3   1 <1>   0.0000 
 20 H       -0.0240    -0.3720    -1.0000 H     1 <1>   0.0000 
 21 C       -0.5270     0.2940     0.9770 C.3   1 <1>   0.0000 
 22 H       -0.0940     1.2940     0.8990 H     1 <1>   0.0000 
 23 H       -0.4370    -0.0280     2.0200 H     1 <1>   0.0000 
 24 H       -1.5940     0.3830     0.7450 H     1 <1>   0.0000 
 25 C       -0.5620    -2.0590     0.1850 C.3   1 <1>   0.0000 
 26 H       -1.6460    -1.9410     0.0760 H     1 <1>   0.0000 
 27 H       -0.2430    -2.7680    -0.5860 H     1 <1>   0.0000 
 28 H       -0.3690    -2.5000     1.1680 H     1 <1>   0.0000 
@<TRIPOS>BOND
  1   1   2  1   
  2   2   3  2   
  3   3   4  1   
  4   3  17  1   
  5   4   5  1   
  6   4   6  2   
  7   6   7  1   
  8   6  11  1   
  9   7   8  1   
 10   7   9  1   
 11   7  10  1   
 12  11  12  1   
 13  11  13  1   
 14  11  14  1   
 15  14  15  1   
 16  14  16  1   
 17  14  17  1   
 18  17  18  1   
 19  17  19  1   
 20  19  20  1   
 21  19  21  1   
 22  19  25  1   
 23  21  22  1   
 24  21  23  1   
 25  21  24  1   
 26  25  26  1   
 27  25  27  1   
 28  25  28  1   
@<TRIPOS>SUBSTRUCTURE
  1 ****  17 GROUP 4 **** **** 0

# MOE 2022.02 (io_trps.svl 2020.11)

@<TRIPOS>MOLECULE
FOD144
17 17 1 0 0 
SMALL
USER_CHARGES


@<TRIPOS>ATOM
  1 H       -2.6520     4.6900    -0.6260 H     1 <1>   0.1500 
  2 C       -2.1250     3.7510    -0.4800 C.ar  1 <1>  -0.1500 
  3 C       -2.8350     2.5480    -0.4700 C.ar  1 <1>  -0.1500 
  4 H       -3.9120     2.5710    -0.6100 H     1 <1>   0.1500 
  5 C       -2.1770     1.3310    -0.2860 C.ar  1 <1>   0.1000 
  6 N       -2.8830     0.1440    -0.2780 N.pl3 1 <1>  -0.9000 
  7 H       -3.8860     0.1400    -0.4060 H     1 <1>   0.4000 
  8 H       -2.4120    -0.7400    -0.1440 H     1 <1>   0.4000 
  9 C       -0.7910     1.3340    -0.1100 C.ar  1 <1>  -0.1500 
 10 H       -0.2690     0.3900     0.0330 H     1 <1>   0.1500 
 11 C       -0.0600     2.5350    -0.1120 C.ar  1 <1>  -0.1440 
 12 C        1.4360     2.5310     0.0680 C.3   1 <1>   1.1640 
 13 F        2.0970     2.8640    -1.0750 F     1 <1>  -0.3400 
 14 F        1.9390     1.3240     0.4510 F     1 <1>  -0.3400 
 15 F        1.8530     3.4210     1.0120 F     1 <1>  -0.3400 
 16 C       -0.7430     3.7450    -0.3030 C.ar  1 <1>  -0.1500 
 17 H       -0.1970     4.6860    -0.3130 H     1 <1>   0.1500 
@<TRIPOS>BOND
  1   1   2  1   
  2   2   3  ar  
  3   2  16  ar  
  4   3   4  1   
  5   3   5  ar  
  6   5   6  1   
  7   5   9  ar  
  8   6   7  1   
  9   6   8  1   
 10   9  10  1   
 11   9  11  ar  
 12  11  12  1   
 13  11  16  ar  
 14  12  13  1   
 15  12  14  1   
 16  12  15  1   
 17  16  17  1   
@<TRIPOS>SUBSTRUCTURE
  1 ****  11 GROUP 4 **** **** 0

# MOE 2022.02 (io_trps.svl 2020.11)

@<TRIPOS>MOLECULE
FOD145
13 12 1 0 0 
SMALL
USER_CHARGES


@<TRIPOS>ATOM
  1 H       -0.1030    -1.0630    -0.0700 H     1 <1>   0.0600 
  2 C        0.3540    -0.0670     0.0530 C.2   1 <1>   0.4960 
  3 O       -0.3180     0.9480     0.1760 O.2   1 <1>  -0.5700 
  4 C        1.8280    -0.0150     0.0620 C.2   1 <1>  -0.1360 
  5 H        2.2750     0.9640     0.1830 H     1 <1>   0.1500 
  6 C        2.5400    -1.1400    -0.0750 C.2   1 <1>  -0.0850 
  7 H        2.0600    -2.1070    -0.1940 H     1 <1>   0.1500 
  8 C        3.9610    -1.1140    -0.0690 C.1   1 <1>  -0.0650 
  9 C        5.1620    -1.1010    -0.0640 C.1   1 <1>   0.0000 
 10 C        6.5940    -1.0890    -0.0550 C.1   1 <1>   0.0000 
 11 C        7.7940    -1.0810    -0.0470 C.1   1 <1>   0.0000 
 12 C        9.2270    -1.0730    -0.0380 C.1   1 <1>   0.5570 
 13 N       10.3870    -1.0670    -0.0290 N.1   1 <1>  -0.5570 
@<TRIPOS>BOND
  1   1   2  1   
  2   2   3  2   
  3   2   4  1   
  4   4   5  1   
  5   4   6  2   
  6   6   7  1   
  7   6   8  1   
  8   8   9  3   
  9   9  10  1   
 10  10  11  3   
 11  11  12  1   
 12  12  13  3   
@<TRIPOS>SUBSTRUCTURE
  1 ****   9 GROUP 4 **** **** 0

# MOE 2022.02 (io_trps.svl 2020.11)

@<TRIPOS>MOLECULE
FOD146
16 15 1 0 0 
SMALL
USER_CHARGES


@<TRIPOS>ATOM
  1 H        3.0660     1.4490     0.0290 H     1 <1>   0.0000 
  2 C        3.3880     0.4380     0.2900 C.3   1 <1>   0.0610 
  3 H        3.4120     0.3180     1.3760 H     1 <1>   0.0000 
  4 H        4.3970     0.2760    -0.0980 H     1 <1>   0.0000 
  5 C        2.4450    -0.5730    -0.3120 C.2   1 <1>   0.4480 
  6 O        2.8090    -1.2970    -1.2400 O.2   1 <1>  -0.5700 
  7 C        1.0300    -0.6220     0.2560 C.3   1 <1>   0.0610 
  8 H        1.1050    -0.5090     1.3440 H     1 <1>   0.0000 
  9 C        0.1990     0.5190    -0.3190 C.3   1 <1>   0.0000 
 10 H        0.6340     1.4910    -0.0640 H     1 <1>   0.0000 
 11 H        0.1460     0.4600    -1.4120 H     1 <1>   0.0000 
 12 H       -0.8220     0.4960     0.0750 H     1 <1>   0.0000 
 13 C        0.3720    -1.9700    -0.0290 C.3   1 <1>   0.0000 
 14 H       -0.6170    -2.0260     0.4380 H     1 <1>   0.0000 
 15 H        0.2480    -2.1370    -1.1050 H     1 <1>   0.0000 
 16 H        0.9800    -2.7910     0.3650 H     1 <1>   0.0000 
@<TRIPOS>BOND
  1   1   2  1   
  2   2   3  1   
  3   2   4  1   
  4   2   5  1   
  5   5   6  2   
  6   5   7  1   
  7   7   8  1   
  8   7   9  1   
  9   7  13  1   
 10   9  10  1   
 11   9  11  1   
 12   9  12  1   
 13  13  14  1   
 14  13  15  1   
 15  13  16  1   
@<TRIPOS>SUBSTRUCTURE
  1 ****   5 GROUP 4 **** **** 0

# MOE 2022.02 (io_trps.svl 2020.11)

@<TRIPOS>MOLECULE
FOD147
12 12 1 0 0 
SMALL
USER_CHARGES


@<TRIPOS>ATOM
  1 H        5.3300    -2.4690    -0.0170 H     1 <1>   0.5000 
  2 O        4.3650    -2.6340    -0.0170 O.3   1 <1>  -0.6500 
  3 C        3.8460    -1.3840    -0.0080 C.2   1 <1>   0.8050 
  4 O        4.5990    -0.4200    -0.0030 O.2   1 <1>  -0.5700 
  5 C        2.4030    -1.4100    -0.0070 C.2   1 <1>  -0.0450 
  6 S        1.5350     0.0680     0.0060 S.3   1 <1>  -0.0800 
  7 C        0.0260    -0.7370     0.0010 C.2   1 <1>  -0.1100 
  8 H       -0.8930    -0.1670     0.0060 H     1 <1>   0.1500 
  9 C        0.1720    -2.1060    -0.0110 C.2   1 <1>  -0.1500 
 10 H       -0.6640    -2.7950    -0.0160 H     1 <1>   0.1500 
 11 C        1.5430    -2.4940    -0.0150 C.2   1 <1>  -0.1500 
 12 H        1.8860    -3.5230    -0.0240 H     1 <1>   0.1500 
@<TRIPOS>BOND
  1   1   2  1   
  2   2   3  1   
  3   3   4  2   
  4   3   5  1   
  5   5   6  1   
  6   5  11  2   
  7   6   7  1   
  8   7   8  1   
  9   7   9  2   
 10   9  10  1   
 11   9  11  1   
 12  11  12  1   
@<TRIPOS>SUBSTRUCTURE
  1 ****   5 GROUP 4 **** **** 0

# MOE 2022.02 (io_trps.svl 2020.11)

@<TRIPOS>MOLECULE
FOD148
15 14 1 0 0 
SMALL
USER_CHARGES


@<TRIPOS>ATOM
  1 H        1.0310     2.2940    -0.6000 H     1 <1>   0.3600 
  2 N        1.0600     1.4560    -1.1690 N.3   1 <1>  -0.9880 
  3 H        1.8390     1.5680    -1.8050 H     1 <1>   0.3600 
  4 P        1.2270     0.1300    -0.2330 P.3   1 <1>   1.5100 
  5 O        1.4470    -1.1650    -0.9470 O.2   1 <1>  -0.7000 
  6 O       -0.0490     0.1270     0.7480 O.3   1 <1>  -0.5510 
  7 C       -1.2540    -0.3930     0.2250 C.3   1 <1>   0.2800 
  8 H       -1.5290     0.1300    -0.6950 H     1 <1>   0.0000 
  9 H       -2.0470    -0.2490     0.9630 H     1 <1>   0.0000 
 10 H       -1.1450    -1.4630     0.0270 H     1 <1>   0.0000 
 11 O        2.4130     0.5070     0.7880 O.3   1 <1>  -0.5510 
 12 C        3.7240     0.1250     0.4240 C.3   1 <1>   0.2800 
 13 H        3.8220    -0.9630     0.4670 H     1 <1>   0.0000 
 14 H        4.4290     0.5710     1.1310 H     1 <1>   0.0000 
 15 H        3.9600     0.4830    -0.5820 H     1 <1>   0.0000 
@<TRIPOS>BOND
  1   1   2  1   
  2   2   3  1   
  3   2   4  1   
  4   4   5  2   
  5   4   6  1   
  6   4  11  1   
  7   6   7  1   
  8   7   8  1   
  9   7   9  1   
 10   7  10  1   
 11  11  12  1   
 12  12  13  1   
 13  12  14  1   
 14  12  15  1   
@<TRIPOS>SUBSTRUCTURE
  1 ****   4 GROUP 4 **** **** 0

# MOE 2022.02 (io_trps.svl 2020.11)

@<TRIPOS>MOLECULE
FOD149
30 30 1 0 0 
SMALL
USER_CHARGES


@<TRIPOS>ATOM
  1 H        0.8360     2.9450    -1.5740 H     1 <1>   0.0600 
  2 C        0.1460     2.0840    -1.5180 C.2   1 <1>   0.4490 
  3 O       -0.5780     1.8040    -2.4680 O.2   1 <1>  -0.5700 
  4 C        0.1990     1.2870    -0.2110 C.3   1 <1>   0.5640 
  5 H        0.2650     2.0230     0.6010 H     1 <1>   0.0000 
  6 C        1.4500     0.3820    -0.2280 C.3   1 <1>   0.1380 
  7 H        1.4350    -0.2810    -1.1010 H     1 <1>   0.0000 
  8 H        1.4720    -0.2670     0.6530 H     1 <1>   0.0000 
  9 C        2.7200     1.1660    -0.2420 C.2   1 <1>  -0.0290 
 10 C        3.4670     1.6060     0.7850 C.2   1 <1>  -0.0410 
 11 H        3.3170     1.4980     1.8500 H     1 <1>   0.1500 
 12 N        4.5560     2.2720     0.2830 N.am  1 <1>  -0.5390 
 13 H        5.2930     2.7170     0.8170 H     1 <1>   0.3700 
 14 C        4.5090     2.2410    -1.1120 C.2   1 <1>   0.5000 
 15 S        5.5780     2.8970    -2.1710 S.2   1 <1>  -0.3800 
 16 N        3.3440     1.5260    -1.4180 N.am  1 <1>  -0.5390 
 17 H        3.0630     1.3210    -2.3690 H     1 <1>   0.3700 
 18 N       -1.1310     0.4620     0.1190 N.4   1 <1>  -1.0120 
 19 C       -2.3460     1.4000     0.0200 C.3   1 <1>   0.5030 
 20 H       -2.1550     2.2730     0.6500 H     1 <1>   0.0000 
 21 H       -2.5000     1.6930    -1.0200 H     1 <1>   0.0000 
 22 H       -3.2290     0.8600     0.3760 H     1 <1>   0.0000 
 23 C       -1.0900    -0.0750     1.5500 C.3   1 <1>   0.5030 
 24 H       -2.0630    -0.5170     1.7840 H     1 <1>   0.0000 
 25 H       -0.3180    -0.8440     1.6220 H     1 <1>   0.0000 
 26 H       -0.8770     0.7570     2.2250 H     1 <1>   0.0000 
 27 C       -1.3540    -0.7040    -0.8440 C.3   1 <1>   0.5030 
 28 H       -1.4070    -0.3330    -1.8680 H     1 <1>   0.0000 
 29 H       -2.2990    -1.1890    -0.5770 H     1 <1>   0.0000 
 30 H       -0.5330    -1.4150    -0.7300 H     1 <1>   0.0000 
@<TRIPOS>BOND
  1   1   2  1   
  2   2   3  2   
  3   2   4  1   
  4   4   5  1   
  5   4   6  1   
  6   4  18  1   
  7   6   7  1   
  8   6   8  1   
  9   6   9  1   
 10   9  10  2   
 11   9  16  1   
 12  10  11  1   
 13  10  12  1   
 14  12  13  1   
 15  12  14  am  
 16  14  15  2   
 17  14  16  am  
 18  16  17  1   
 19  18  19  1   
 20  18  23  1   
 21  18  27  1   
 22  19  20  1   
 23  19  21  1   
 24  19  22  1   
 25  23  24  1   
 26  23  25  1   
 27  23  26  1   
 28  27  28  1   
 29  27  29  1   
 30  27  30  1   
@<TRIPOS>SUBSTRUCTURE
  1 ****   6 GROUP 4 **** **** 0

# MOE 2022.02 (io_trps.svl 2020.11)

@<TRIPOS>MOLECULE
FOD150
14 14 1 0 0 
SMALL
USER_CHARGES


@<TRIPOS>ATOM
  1 H       -4.9060     2.3050     0.0020 H     1 <1>   0.1500 
  2 C       -3.8180     2.3080     0.0010 C.ar  1 <1>  -0.1500 
  3 C       -3.1200     1.0990     0.0010 C.ar  1 <1>  -0.1500 
  4 H       -3.6650     0.1580     0.0010 H     1 <1>   0.1500 
  5 C       -1.7240     1.0970     0.0000 C.ar  1 <1>  -0.1500 
  6 H       -1.1960     0.1460     0.0000 H     1 <1>   0.1500 
  7 C       -1.0340     2.3170     0.0000 C.ar  1 <1>   0.1330 
  8 N        0.4340     2.3210    -0.0010 N.pl3 1 <1>   0.9070 
  9 O        1.0150     1.2260     0.0000 O.2   1 <1>  -0.5200 
 10 O        1.0080     3.4190    -0.0030 O.2   1 <1>  -0.5200 
 11 C       -1.7320     3.5320     0.0000 C.ar  1 <1>  -0.1500 
 12 H       -1.2090     4.4860     0.0000 H     1 <1>   0.1500 
 13 C       -3.1280     3.5210     0.0010 C.ar  1 <1>  -0.1500 
 14 H       -3.6790     4.4590     0.0010 H     1 <1>   0.1500 
@<TRIPOS>BOND
  1   1   2  1   
  2   2   3  ar  
  3   2  13  ar  
  4   3   4  1   
  5   3   5  ar  
  6   5   6  1   
  7   5   7  ar  
  8   7   8  1   
  9   7  11  ar  
 10   8   9  2   
 11   8  10  2   
 12  11  12  1   
 13  11  13  ar  
 14  13  14  1   
@<TRIPOS>SUBSTRUCTURE
  1 ****   7 GROUP 4 **** **** 0

# MOE 2022.02 (io_trps.svl 2020.11)

@<TRIPOS>MOLECULE
FOD151
8 7 1 0 0 
SMALL
USER_CHARGES


@<TRIPOS>ATOM
  1 H       -0.7130    -0.2320     0.8690 H     1 <1>   0.1800 
  2 S        0.0270    -0.2660    -0.2490 S.3   1 <1>  -0.1800 
  3 S        1.0090    -2.0370     0.0690 S.3   1 <1>   0.0000 
  4 S        2.5710    -1.5540     1.3090 S.3   1 <1>  -0.2300 
  5 C        3.8180    -0.9910     0.1250 C.3   1 <1>   0.2300 
  6 H        4.0740    -1.7910    -0.5760 H     1 <1>   0.0000 
  7 H        4.7250    -0.7110     0.6700 H     1 <1>   0.0000 
  8 H        3.4650    -0.1140    -0.4230 H     1 <1>   0.0000 
@<TRIPOS>BOND
  1   1   2  1   
  2   2   3  1   
  3   3   4  1   
  4   4   5  1   
  5   5   6  1   
  6   5   7  1   
  7   5   8  1   
@<TRIPOS>SUBSTRUCTURE
  1 ****   3 GROUP 4 **** **** 0

# MOE 2022.02 (io_trps.svl 2020.11)

@<TRIPOS>MOLECULE
FOD152
7 6 1 0 0 
SMALL
USER_CHARGES


@<TRIPOS>ATOM
  1 H        1.5080    -1.9650     0.3300 H     1 <1>   0.0600 
  2 C        1.6380    -0.8980     0.0750 C.2   1 <1>   0.4490 
  3 O        2.7410    -0.3810     0.2380 O.2   1 <1>  -0.5700 
  4 C        0.3730    -0.1820    -0.3320 C.3   1 <1>   0.6410 
  5 H       -0.2310     0.0070     0.5600 H     1 <1>   0.0000 
  6 CL       0.7240     1.3520    -1.1370 Cl    1 <1>  -0.2900 
  7 CL      -0.5480    -1.2520    -1.4100 Cl    1 <1>  -0.2900 
@<TRIPOS>BOND
  1   1   2  1   
  2   2   3  2   
  3   2   4  1   
  4   4   5  1   
  5   4   6  1   
  6   4   7  1   
@<TRIPOS>SUBSTRUCTURE
  1 ****   4 GROUP 4 **** **** 0

# MOE 2022.02 (io_trps.svl 2020.11)

@<TRIPOS>MOLECULE
FOD153
30 29 1 0 0 
SMALL
USER_CHARGES


@<TRIPOS>ATOM
  1 H        1.7280    -1.7960    -1.5830 H     1 <1>   0.4000 
  2 O        1.3880    -0.8980    -1.4100 O.3   1 <1>  -0.3370 
  3 N        2.4470    -0.3080    -0.7190 N.2   1 <1>  -0.5130 
  4 C        2.2160     0.9310    -0.3730 C.2   1 <1>   0.3280 
  5 C        0.8920     1.6510    -0.7420 C.3   1 <1>   0.0610 
  6 H        0.4540     1.1010    -1.5840 H     1 <1>   0.0000 
  7 C       -0.1260     1.5560     0.3920 C.3   1 <1>   0.0000 
  8 H       -1.1330     1.7750     0.0200 H     1 <1>   0.0000 
  9 H        0.0810     2.2700     1.1940 H     1 <1>   0.0000 
 10 H       -0.1400     0.5530     0.8300 H     1 <1>   0.0000 
 11 C        1.0230     3.0720    -1.2720 C.3   1 <1>   0.0000 
 12 H        1.7570     3.1220    -2.0820 H     1 <1>   0.0000 
 13 H        1.3110     3.7860    -0.4970 H     1 <1>   0.0000 
 14 H        0.0640     3.4150    -1.6780 H     1 <1>   0.0000 
 15 C        3.3460     1.6370     0.4540 C.3   1 <1>   0.0610 
 16 C        4.3180     0.5700     1.0290 C.3   1 <1>   0.0000 
 17 H        3.7870    -0.1300     1.6850 H     1 <1>   0.0000 
 18 H        4.7980    -0.0250     0.2450 H     1 <1>   0.0000 
 19 H        5.1160     1.0360     1.6190 H     1 <1>   0.0000 
 20 C        2.7750     2.3720     1.6790 C.3   1 <1>   0.0000 
 21 H        3.5780     2.7460     2.3260 H     1 <1>   0.0000 
 22 H        2.1720     3.2400     1.4020 H     1 <1>   0.0000 
 23 H        2.1490     1.7060     2.2830 H     1 <1>   0.0000 
 24 C        4.1620     2.6350    -0.4070 C.3   1 <1>   0.0000 
 25 H        4.9980     3.0250     0.1900 H     1 <1>   0.0000 
 26 H        3.5590     3.5110    -0.6580 H     1 <1>   0.0000 
 27 C        4.7340     2.0660    -1.7000 C.3   1 <1>   0.0000 
 28 H        3.9450     1.7060    -2.3670 H     1 <1>   0.0000 
 29 H        5.4310     1.2450    -1.5100 H     1 <1>   0.0000 
 30 H        5.2860     2.8460    -2.2350 H     1 <1>   0.0000 
@<TRIPOS>BOND
  1   1   2  1   
  2   2   3  1   
  3   3   4  2   
  4   4   5  1   
  5   4  15  1   
  6   5   6  1   
  7   5   7  1   
  8   5  11  1   
  9   7   8  1   
 10   7   9  1   
 11   7  10  1   
 12  11  12  1   
 13  11  13  1   
 14  11  14  1   
 15  15  16  1   
 16  15  20  1   
 17  15  24  1   
 18  16  17  1   
 19  16  18  1   
 20  16  19  1   
 21  20  21  1   
 22  20  22  1   
 23  20  23  1   
 24  24  25  1   
 25  24  26  1   
 26  24  27  1   
 27  27  28  1   
 28  27  29  1   
 29  27  30  1   
@<TRIPOS>SUBSTRUCTURE
  1 ****   4 GROUP 4 **** **** 0

# MOE 2022.02 (io_trps.svl 2020.11)

@<TRIPOS>MOLECULE
FOD154
18 19 1 0 0 
SMALL
USER_CHARGES


@<TRIPOS>ATOM
  1 H        2.5350    -3.8220    -0.1980 H     1 <1>   0.1500 
  2 C        1.5840    -3.3080    -0.1010 C.ar  1 <1>  -0.1500 
  3 C        0.3810    -4.0120    -0.1640 C.ar  1 <1>  -0.1500 
  4 H        0.4000    -5.0890    -0.3080 H     1 <1>   0.1500 
  5 C       -0.8280    -3.3230    -0.0390 C.ar  1 <1>   0.1170 
  6 C       -0.8370    -1.9370     0.1530 C.ar  1 <1>   0.0820 
  7 C        0.3660    -1.2380     0.2250 C.ar  1 <1>  -0.1500 
  8 H        0.3760    -0.1650     0.3860 H     1 <1>   0.1500 
  9 C        1.5650    -1.9290     0.0930 C.ar  1 <1>   0.1900 
 10 F        2.7230    -1.2600     0.1580 F     1 <1>  -0.1900 
 11 O       -1.9780    -1.2030     0.3260 O.3   1 <1>  -0.3630 
 12 C       -3.1760    -1.8730    -0.0340 C.3   1 <1>   0.3410 
 13 H       -3.9570    -1.5160     0.6480 H     1 <1>   0.0000 
 14 H       -3.4510    -1.5470    -1.0440 H     1 <1>   0.0000 
 15 C       -3.2370    -3.3990    -0.0230 C.2   1 <1>   0.5690 
 16 O       -4.2910    -4.0310    -0.0260 O.2   1 <1>  -0.5700 
 17 N       -2.0270    -4.0320    -0.0770 N.am  1 <1>  -0.5470 
 18 H       -2.0400    -5.0410    -0.1420 H     1 <1>   0.3700 
@<TRIPOS>BOND
  1   1   2  1   
  2   2   3  ar  
  3   2   9  ar  
  4   3   4  1   
  5   3   5  ar  
  6   5   6  ar  
  7   5  17  1   
  8   6   7  ar  
  9   6  11  1   
 10   7   8  1   
 11   7   9  ar  
 12   9  10  1   
 13  11  12  1   
 14  12  13  1   
 15  12  14  1   
 16  12  15  1   
 17  15  16  2   
 18  15  17  am  
 19  17  18  1   
@<TRIPOS>SUBSTRUCTURE
  1 ****   5 GROUP 4 **** **** 0

# MOE 2022.02 (io_trps.svl 2020.11)

@<TRIPOS>MOLECULE
FOD155
12 12 1 0 0 
SMALL
USER_CHARGES


@<TRIPOS>ATOM
  1 H        1.0560     3.7580     0.0520 H     1 <1>   0.3700 
  2 N        0.6850     2.8210     0.0320 N.am  1 <1>  -0.4900 
  3 C        1.4320     1.7140     0.2530 C.2   1 <1>   0.5690 
  4 O        2.6190     1.7170     0.5320 O.2   1 <1>  -0.5700 
  5 C        0.5970     0.4860     0.0540 C.3   1 <1>   0.0610 
  6 H        0.7310    -0.1980     0.8970 H     1 <1>   0.0000 
  7 H        0.9450    -0.0060    -0.8610 H     1 <1>   0.0000 
  8 C       -0.8170     1.0400    -0.0690 C.3   1 <1>   0.6410 
  9 CL      -1.7610     0.7460     1.4120 Cl    1 <1>  -0.2900 
 10 CL      -1.6570     0.3900    -1.4870 Cl    1 <1>  -0.2900 
 11 C       -0.6220     2.5370    -0.2160 C.2   1 <1>   0.5690 
 12 O       -1.4630     3.3820    -0.4790 O.2   1 <1>  -0.5700 
@<TRIPOS>BOND
  1   1   2  1   
  2   2   3  am  
  3   2  11  am  
  4   3   4  2   
  5   3   5  1   
  6   5   6  1   
  7   5   7  1   
  8   5   8  1   
  9   8   9  1   
 10   8  10  1   
 11   8  11  1   
 12  11  12  2   
@<TRIPOS>SUBSTRUCTURE
  1 ****   8 GROUP 4 **** **** 0

# MOE 2022.02 (io_trps.svl 2020.11)

@<TRIPOS>MOLECULE
FOD156
15 14 1 0 0 
SMALL
USER_CHARGES


@<TRIPOS>ATOM
  1 H        3.3410     2.2760    -0.3390 H     1 <1>   0.1800 
  2 S        2.4420     1.4300    -0.8660 S.3   1 <1>  -0.4100 
  3 C        3.0270    -0.0590     0.0040 C.3   1 <1>   0.2300 
  4 H        2.9530     0.1220     1.0820 H     1 <1>   0.0000 
  5 H        4.0910    -0.1720    -0.2340 H     1 <1>   0.0000 
  6 C        2.2490    -1.3200    -0.3970 C.3   1 <1>   0.0610 
  7 H        2.2680    -1.4180    -1.4900 H     1 <1>   0.0000 
  8 C        2.9730    -2.5300     0.1620 C.2   1 <1>   0.4490 
  9 H        2.6830    -3.5040    -0.2700 H     1 <1>   0.0600 
 10 O        3.8230    -2.4750     1.0460 O.2   1 <1>  -0.5700 
 11 C        0.8110    -1.3100     0.1330 C.3   1 <1>   0.2300 
 12 H        0.7950    -1.4220     1.2230 H     1 <1>   0.0000 
 13 H        0.3000    -0.3760    -0.1120 H     1 <1>   0.0000 
 14 S       -0.1960    -2.6530    -0.5800 S.3   1 <1>  -0.4100 
 15 H       -1.3480    -2.3170     0.0210 H     1 <1>   0.1800 
@<TRIPOS>BOND
  1   1   2  1   
  2   2   3  1   
  3   3   4  1   
  4   3   5  1   
  5   3   6  1   
  6   6   7  1   
  7   6   8  1   
  8   6  11  1   
  9   8   9  1   
 10   8  10  2   
 11  11  12  1   
 12  11  13  1   
 13  11  14  1   
 14  14  15  1   
@<TRIPOS>SUBSTRUCTURE
  1 ****   6 GROUP 4 **** **** 0

# MOE 2022.02 (io_trps.svl 2020.11)

@<TRIPOS>MOLECULE
FOD157
37 39 1 0 0 
SMALL
USER_CHARGES


@<TRIPOS>ATOM
  1 H        1.5430    -4.0560     0.8610 H     1 <1>   0.4000 
  2 O        1.9380    -3.6340     0.0770 O.3   1 <1>  -0.6800 
  3 C        3.1910    -3.0570     0.4360 C.3   1 <1>   0.2800 
  4 H        3.7530    -3.8790     0.8970 H     1 <1>   0.0000 
  5 C        2.9810    -1.9570     1.5000 C.3   1 <1>   0.0000 
  6 H        1.9480    -1.9770     1.8710 H     1 <1>   0.0000 
  7 H        3.6060    -2.1970     2.3700 H     1 <1>   0.0000 
  8 C        3.3290    -0.5300     1.0430 C.3   1 <1>   0.5980 
  9 H        3.4340     0.1520     1.8940 H     1 <1>   0.0000 
 10 C        2.3100    -0.0210     0.0360 C.3   1 <1>  -0.0470 
 11 H        1.9060     0.9650     0.1990 H     1 <1>   0.1000 
 12 O        1.6270    -0.9570    -0.7910 O.3   1 <1>  -0.2960 
 13 C        2.8390    -0.4220    -1.3160 C.3   1 <1>  -0.0470 
 14 H        2.8210     0.2730    -2.1400 H     1 <1>   0.1000 
 15 C        4.1480    -1.1500    -1.0530 C.3   1 <1>   0.5980 
 16 H        4.8800    -0.9470    -1.8410 H     1 <1>   0.0000 
 17 C        3.9250    -2.6570    -0.8630 C.3   1 <1>   0.0000 
 18 H        3.3960    -3.0570    -1.7390 H     1 <1>   0.0000 
 19 H        4.9040    -3.1520    -0.8650 H     1 <1>   0.0000 
 20 N        4.6910    -0.5430     0.2750 N.4   1 <1>  -1.0120 
 21 C        5.1470     0.9140     0.0460 C.3   1 <1>   0.5030 
 22 H        5.9140     0.9200    -0.7320 H     1 <1>   0.0000 
 23 H        4.3050     1.5290    -0.2800 H     1 <1>   0.0000 
 24 H        5.5380     1.3010     0.9920 H     1 <1>   0.0000 
 25 C        5.8330    -1.2870     0.9840 C.3   1 <1>   0.5030 
 26 H        5.5140    -2.3030     1.2180 H     1 <1>   0.0000 
 27 H        6.0010    -0.7690     1.9360 H     1 <1>   0.0000 
 28 C        7.1190    -1.3360     0.1550 C.3   1 <1>   0.0000 
 29 H        6.9190    -1.7360    -0.8450 H     1 <1>   0.0000 
 30 H        7.5340    -0.3300     0.0280 H     1 <1>   0.0000 
 31 C        8.1720    -2.2070     0.8440 C.3   1 <1>   0.0000 
 32 H        8.3820    -1.8140     1.8460 H     1 <1>   0.0000 
 33 H        7.7890    -3.2260     0.9680 H     1 <1>   0.0000 
 34 C        9.4650    -2.2560     0.0460 C.3   1 <1>   0.0000 
 35 H       10.2030    -2.8820     0.5580 H     1 <1>   0.0000 
 36 H        9.8930    -1.2550    -0.0710 H     1 <1>   0.0000 
 37 H        9.2960    -2.6770    -0.9500 H     1 <1>   0.0000 
@<TRIPOS>BOND
  1   1   2  1   
  2   2   3  1   
  3   3   4  1   
  4   3   5  1   
  5   3  17  1   
  6   5   6  1   
  7   5   7  1   
  8   5   8  1   
  9   8   9  1   
 10   8  10  1   
 11   8  20  1   
 12  10  11  1   
 13  10  12  1   
 14  10  13  1   
 15  12  13  1   
 16  13  14  1   
 17  13  15  1   
 18  15  16  1   
 19  15  17  1   
 20  15  20  1   
 21  17  18  1   
 22  17  19  1   
 23  20  21  1   
 24  20  25  1   
 25  21  22  1   
 26  21  23  1   
 27  21  24  1   
 28  25  26  1   
 29  25  27  1   
 30  25  28  1   
 31  28  29  1   
 32  28  30  1   
 33  28  31  1   
 34  31  32  1   
 35  31  33  1   
 36  31  34  1   
 37  34  35  1   
 38  34  36  1   
 39  34  37  1   
@<TRIPOS>SUBSTRUCTURE
  1 ****  20 GROUP 4 **** **** 0

# MOE 2022.02 (io_trps.svl 2020.11)

@<TRIPOS>MOLECULE
FOD158
15 15 1 0 0 
SMALL
USER_CHARGES


@<TRIPOS>ATOM
  1 H        1.0880    -2.8970    -0.0060 H     1 <1>   0.0600 
  2 C        0.5830    -1.9240    -0.0020 C.2   1 <1>   0.4240 
  3 O       -0.6430    -1.8950     0.0020 O.2   1 <1>  -0.5700 
  4 C        1.4370    -0.7040    -0.0020 C.ar  1 <1>   0.3960 
  5 N        0.7370     0.4660    -0.0010 N.ar  1 <1>  -0.6200 
  6 C        1.4350     1.6210    -0.0010 C.ar  1 <1>   0.1600 
  7 H        0.8350     2.5270    -0.0010 H     1 <1>   0.1500 
  8 C        2.8160     1.6750    -0.0020 C.ar  1 <1>  -0.1500 
  9 H        3.3340     2.6280    -0.0020 H     1 <1>   0.1500 
 10 C        3.5200     0.4740    -0.0020 C.ar  1 <1>  -0.1500 
 11 H        4.6090     0.4940    -0.0020 H     1 <1>   0.1500 
 12 C        2.8290    -0.7460    -0.0020 C.ar  1 <1>   0.0860 
 13 C        3.6200    -1.9910    -0.0020 C.2   1 <1>   0.4240 
 14 H        3.0950    -2.9550     0.0010 H     1 <1>   0.0600 
 15 O        4.8460    -1.9680    -0.0040 O.2   1 <1>  -0.5700 
@<TRIPOS>BOND
  1   1   2  1   
  2   2   3  2   
  3   2   4  1   
  4   4   5  ar  
  5   4  12  ar  
  6   5   6  ar  
  7   6   7  1   
  8   6   8  ar  
  9   8   9  1   
 10   8  10  ar  
 11  10  11  1   
 12  10  12  ar  
 13  12  13  1   
 14  13  14  1   
 15  13  15  2   
@<TRIPOS>SUBSTRUCTURE
  1 ****   4 GROUP 4 **** **** 0

# MOE 2022.02 (io_trps.svl 2020.11)

@<TRIPOS>MOLECULE
FOD159
29 29 1 0 0 
SMALL
USER_CHARGES


@<TRIPOS>ATOM
  1 H       -9.2020    -5.9250     0.8850 H     1 <1>   0.1500 
  2 C       -8.3210    -5.3480     0.6190 C.ar  1 <1>   0.1600 
  3 N       -7.6030    -5.8380    -0.4130 N.ar  1 <1>  -0.6200 
  4 C       -6.5010    -5.1410    -0.7700 C.ar  1 <1>   0.1600 
  5 H       -5.9460    -5.5670    -1.6010 H     1 <1>   0.1500 
  6 C       -6.0780    -3.9710    -0.1440 C.ar  1 <1>  -0.1440 
  7 C       -4.8260    -3.2630    -0.5810 C.3   1 <1>   0.1440 
  8 H       -4.7240    -3.3460    -1.6710 H     1 <1>   0.0000 
  9 H       -4.9180    -2.1910    -0.3670 H     1 <1>   0.0000 
 10 C       -3.5860    -3.8340     0.1110 C.3   1 <1>   0.0000 
 11 H       -3.6950    -3.7510     1.2000 H     1 <1>   0.0000 
 12 H       -3.4940    -4.9040    -0.1160 H     1 <1>   0.0000 
 13 C       -2.3150    -3.1050    -0.3320 C.3   1 <1>   0.0000 
 14 H       -2.2090    -3.1860    -1.4210 H     1 <1>   0.0000 
 15 H       -2.4190    -2.0410    -0.0920 H     1 <1>   0.0000 
 16 C       -1.0720    -3.6960     0.3520 C.3   1 <1>   0.2700 
 17 H       -1.1540    -3.5880     1.4420 H     1 <1>   0.0000 
 18 H       -1.0760    -4.7760     0.1440 H     1 <1>   0.0000 
 19 N        0.1870    -3.1090    -0.1450 N.pl3 1 <1>  -0.3640 
 20 N        1.2220    -3.8700     0.1460 N.2   1 <1>  -0.0140 
 21 O        2.2030    -3.5660    -0.5420 O.2   1 <1>  -0.1620 
 22 C        0.3450    -1.7190     0.3090 C.3   1 <1>   0.2700 
 23 H        1.2710    -1.2720    -0.0750 H     1 <1>   0.0000 
 24 H       -0.4610    -1.0830    -0.0700 H     1 <1>   0.0000 
 25 H        0.3620    -1.6430     1.4030 H     1 <1>   0.0000 
 26 C       -6.8450    -3.5000     0.9240 C.ar  1 <1>  -0.1500 
 27 H       -6.5610    -2.5960     1.4560 H     1 <1>   0.1500 
 28 C       -7.9860    -4.1960     1.3120 C.ar  1 <1>  -0.1500 
 29 H       -8.6000    -3.8500     2.1360 H     1 <1>   0.1500 
@<TRIPOS>BOND
  1   1   2  1   
  2   2   3  ar  
  3   2  28  ar  
  4   3   4  ar  
  5   4   5  1   
  6   4   6  ar  
  7   6   7  1   
  8   6  26  ar  
  9   7   8  1   
 10   7   9  1   
 11   7  10  1   
 12  10  11  1   
 13  10  12  1   
 14  10  13  1   
 15  13  14  1   
 16  13  15  1   
 17  13  16  1   
 18  16  17  1   
 19  16  18  1   
 20  16  19  1   
 21  19  20  1   
 22  19  22  1   
 23  20  21  2   
 24  22  23  1   
 25  22  24  1   
 26  22  25  1   
 27  26  27  1   
 28  26  28  ar  
 29  28  29  1   
@<TRIPOS>SUBSTRUCTURE
  1 ****  10 GROUP 4 **** **** 0

# MOE 2022.02 (io_trps.svl 2020.11)

@<TRIPOS>MOLECULE
FOD160
23 23 1 0 0 
SMALL
USER_CHARGES


@<TRIPOS>ATOM
  1 H       -4.8350     4.7540    -0.9410 H     1 <1>   0.1500 
  2 C       -3.9350     4.2600    -0.5870 C.ar  1 <1>   0.1600 
  3 N       -3.5210     3.2160    -1.3350 N.ar  1 <1>  -0.6200 
  4 C       -2.4020     2.5800    -0.9190 C.ar  1 <1>   0.1600 
  5 H       -2.0950     1.7490    -1.5490 H     1 <1>   0.1500 
  6 C       -1.6760     2.9330     0.2140 C.ar  1 <1>  -0.1440 
  7 C       -0.4270     2.1910     0.6010 C.3   1 <1>   0.1440 
  8 H       -0.5160     1.1420     0.2930 H     1 <1>   0.0000 
  9 H       -0.3380     2.1770     1.6950 H     1 <1>   0.0000 
 10 C        0.8210     2.8200    -0.0220 C.3   1 <1>   0.0000 
 11 H        0.9110     3.8660     0.2980 H     1 <1>   0.0000 
 12 H        0.7260     2.8320    -1.1150 H     1 <1>   0.0000 
 13 C        2.0820     2.0540     0.3740 C.3   1 <1>   0.0000 
 14 H        2.1900     2.0520     1.4650 H     1 <1>   0.0000 
 15 H        1.9990     1.0080     0.0540 H     1 <1>   0.0000 
 16 C        3.3260     2.6670    -0.2500 C.3   1 <1>   0.0000 
 17 H        3.2640     2.6540    -1.3430 H     1 <1>   0.0000 
 18 H        4.2160     2.1040     0.0470 H     1 <1>   0.0000 
 19 H        3.4560     3.7050     0.0750 H     1 <1>   0.0000 
 20 C       -2.1340     4.0230     0.9570 C.ar  1 <1>  -0.1500 
 21 H       -1.6020     4.3510     1.8460 H     1 <1>   0.1500 
 22 C       -3.2830     4.6980     0.5540 C.ar  1 <1>  -0.1500 
 23 H       -3.6590     5.5460     1.1140 H     1 <1>   0.1500 
@<TRIPOS>BOND
  1   1   2  1   
  2   2   3  ar  
  3   2  22  ar  
  4   3   4  ar  
  5   4   5  1   
  6   4   6  ar  
  7   6   7  1   
  8   6  20  ar  
  9   7   8  1   
 10   7   9  1   
 11   7  10  1   
 12  10  11  1   
 13  10  12  1   
 14  10  13  1   
 15  13  14  1   
 16  13  15  1   
 17  13  16  1   
 18  16  17  1   
 19  16  18  1   
 20  16  19  1   
 21  20  21  1   
 22  20  22  ar  
 23  22  23  1   
@<TRIPOS>SUBSTRUCTURE
  1 ****   6 GROUP 4 **** **** 0

# MOE 2022.02 (io_trps.svl 2020.11)

@<TRIPOS>MOLECULE
FOD161
16 16 1 0 0 
SMALL
USER_CHARGES


@<TRIPOS>ATOM
  1 H       -0.2170    -0.1300    -0.0940 H     1 <1>   0.4000 
  2 O        0.6660     0.2660    -0.1910 O.3   1 <1>  -0.6800 
  3 C        1.5420    -0.7530    -0.6400 C.3   1 <1>   0.4180 
  4 H        1.2170    -1.0790    -1.6340 H     1 <1>   0.0000 
  5 C        1.5620    -1.8880     0.3240 C.2   1 <1>  -0.2880 
  6 H        0.6750    -2.3850     0.6930 H     1 <1>   0.1500 
  7 C        2.8120    -2.2470     0.6350 C.2   1 <1>  -0.2880 
  8 H        3.0670    -3.0690     1.2930 H     1 <1>   0.1500 
  9 C        3.8380    -1.3920    -0.0600 C.3   1 <1>   0.3380 
 10 H        4.3300    -1.9710    -0.8500 H     1 <1>   0.0000 
 11 C        4.8420    -0.8950     0.8920 C.1   1 <1>   0.3570 
 12 N        5.6360    -0.5140     1.6490 N.1   1 <1>  -0.5570 
 13 C        2.9980    -0.2380    -0.6400 C.3   1 <1>   0.2800 
 14 H        3.0940     0.6840    -0.0520 H     1 <1>   0.0000 
 15 O        3.4170     0.0680    -1.9760 O.3   1 <1>  -0.6800 
 16 H        2.8640     0.8160    -2.2710 H     1 <1>   0.4000 
@<TRIPOS>BOND
  1   1   2  1   
  2   2   3  1   
  3   3   4  1   
  4   3   5  1   
  5   3  13  1   
  6   5   6  1   
  7   5   7  2   
  8   7   8  1   
  9   7   9  1   
 10   9  10  1   
 11   9  11  1   
 12   9  13  1   
 13  11  12  3   
 14  13  14  1   
 15  13  15  1   
 16  15  16  1   
@<TRIPOS>SUBSTRUCTURE
  1 ****  13 GROUP 4 **** **** 0

# MOE 2022.02 (io_trps.svl 2020.11)

@<TRIPOS>MOLECULE
FOD162
17 17 1 0 0 
SMALL
USER_CHARGES


@<TRIPOS>ATOM
  1 H        7.8120    -0.1140     0.0120 H     1 <1>   0.5000 
  2 O        6.9680    -0.6110     0.0090 O.3   1 <1>  -0.6500 
  3 C        6.0510     0.3740     0.0100 C.2   1 <1>   0.7800 
  4 O        6.4150     1.5340     0.0140 O.2   1 <1>  -0.5700 
  5 N        4.8120    -0.1760     0.0050 N.am  1 <1>  -0.5470 
  6 H        4.8200    -1.1860     0.0010 H     1 <1>   0.3700 
  7 C        3.5720     0.4810     0.0040 C.ar  1 <1>   0.1170 
  8 C        2.4210    -0.3160    -0.0020 C.ar  1 <1>  -0.1500 
  9 H        2.4960    -1.4000    -0.0060 H     1 <1>   0.1500 
 10 C        1.1510     0.2670    -0.0030 C.ar  1 <1>  -0.1500 
 11 H        0.2640    -0.3610    -0.0080 H     1 <1>   0.1500 
 12 C        1.0220     1.6540     0.0020 C.ar  1 <1>  -0.1500 
 13 H        0.0360     2.1100     0.0020 H     1 <1>   0.1500 
 14 C        2.1620     2.4550     0.0080 C.ar  1 <1>  -0.1500 
 15 H        2.0670     3.5380     0.0120 H     1 <1>   0.1500 
 16 C        3.4330     1.8710     0.0090 C.ar  1 <1>  -0.1500 
 17 H        4.2960     2.5290     0.0140 H     1 <1>   0.1500 
@<TRIPOS>BOND
  1   1   2  1   
  2   2   3  1   
  3   3   4  2   
  4   3   5  am  
  5   5   6  1   
  6   5   7  1   
  7   7   8  ar  
  8   7  16  ar  
  9   8   9  1   
 10   8  10  ar  
 11  10  11  1   
 12  10  12  ar  
 13  12  13  1   
 14  12  14  ar  
 15  14  15  1   
 16  14  16  ar  
 17  16  17  1   
@<TRIPOS>SUBSTRUCTURE
  1 ****   7 GROUP 4 **** **** 0

# MOE 2022.02 (io_trps.svl 2020.11)

@<TRIPOS>MOLECULE
FOD163
28 28 1 0 0 
SMALL
USER_CHARGES


@<TRIPOS>ATOM
  1 H       -1.2350    -7.0150     0.0000 H     1 <1>   0.0000 
  2 N       -1.3040    -5.8170     0.0000 N.2   1 <1>   0.0000 
  3 C       -2.6450    -5.1440     0.0000 C.2   1 <1>   0.0000 
  4 N       -3.8980    -5.9670     0.0000 N.pl3 1 <1>   0.0000 
  5 H       -4.9700    -5.4280     0.0000 H     1 <1>   0.0000 
  6 H       -3.8290    -7.1650     0.0000 H     1 <1>   0.0000 
  7 N       -2.7310    -3.6460     0.0000 N.pl3 1 <1>   0.0000 
  8 H       -3.8040    -3.1070     0.0000 H     1 <1>   0.0000 
  9 C       -1.4780    -2.8220     0.0000 C.3   1 <1>   0.0000 
 10 H       -2.5170    -2.2220     0.0000 H     1 <1>   0.0000 
 11 O       -0.0750    -3.3520     0.0000 O.3   1 <1>   0.0000 
 12 C        0.8630    -2.1810     0.0000 C.3   1 <1>   0.0000 
 13 H        1.4630    -1.1420     0.0000 H     1 <1>   0.0000 
 14 O        2.3610    -2.2510     0.0000 O.3   1 <1>   0.0000 
 15 P        3.0500    -3.5840     0.0000 P.3   1 <1>   1.0000 
 16 H        4.2090    -3.8950     0.0000 H     1 <1>   0.0000 
 17 O        1.7170    -4.2720     0.0000 O.2   1 <1>   0.0000 
 18 O        4.3820    -2.8960     0.0000 O.3   1 <1>  -1.0000 
 19 O        3.7380    -4.9170     0.0000 O.3   1 <1>   0.0000 
 20 H        3.0900    -5.9270     0.0000 H     1 <1>   0.0000 
 21 C        0.0390    -0.9280     0.0000 C.3   1 <1>   0.0000 
 22 H       -0.5610     0.1120     0.0000 H     1 <1>   0.0000 
 23 O        0.5690     0.4760     0.0000 O.3   1 <1>   0.0000 
 24 H        1.7530     0.6700     0.0000 H     1 <1>   0.0000 
 25 C       -1.4080    -1.3240     0.0000 C.3   1 <1>   0.0000 
 26 H       -1.7180    -0.1650     0.0000 H     1 <1>   0.0000 
 27 O       -2.5790    -0.3860     0.0000 O.3   1 <1>   0.0000 
 28 H       -3.6960    -0.8220     0.0000 H     1 <1>   0.0000 
@<TRIPOS>BOND
  1   1   2  1   
  2   2   3  2   
  3   3   4  1   
  4   3   7  1   
  5   4   5  1   
  6   4   6  1   
  7   7   8  1   
  8   7   9  1   
  9   9  10  1   
 10   9  11  1   
 11   9  25  1   
 12  11  12  1   
 13  12  13  1   
 14  12  14  1   
 15  12  21  1   
 16  14  15  1   
 17  15  16  1   
 18  15  17  2   
 19  15  18  1   
 20  15  19  1   
 21  19  20  1   
 22  21  22  1   
 23  21  23  1   
 24  21  25  1   
 25  23  24  1   
 26  25  26  1   
 27  25  27  1   
 28  27  28  1   
@<TRIPOS>SUBSTRUCTURE
  1 ****  11 GROUP 4 **** **** 0

# MOE 2022.02 (io_trps.svl 2020.11)

@<TRIPOS>MOLECULE
FOD164
34 33 1 0 0 
SMALL
USER_CHARGES


@<TRIPOS>ATOM
  1 H        1.1190     2.4870     1.5520 H     1 <1>   0.4000 
  2 O        0.6820     2.9780     0.8380 O.3   1 <1>  -0.6800 
  3 C        1.0500     2.3450    -0.3580 C.3   1 <1>   0.8400 
  4 O        0.0520     1.4270    -0.6980 O.3   1 <1>  -0.6800 
  5 H       -0.5850     1.9710    -1.1860 H     1 <1>   0.4000 
  6 O        1.0990     3.3350    -1.3440 O.3   1 <1>  -0.6800 
  7 H        0.6800     4.0880    -0.8920 H     1 <1>   0.4000 
  8 C        2.3970     1.6240    -0.2600 C.3   1 <1>   0.0000 
  9 H        2.3320     0.8320     0.4970 H     1 <1>   0.0000 
 10 H        2.6080     1.1270    -1.2150 H     1 <1>   0.0000 
 11 C        3.5620     2.5590     0.0850 C.3   1 <1>   0.0000 
 12 H        3.6500     3.3400    -0.6800 H     1 <1>   0.0000 
 13 H        3.3680     3.0620     1.0390 H     1 <1>   0.0000 
 14 C        4.8830     1.7910     0.1770 C.3   1 <1>   0.0000 
 15 H        4.8010     1.0150     0.9480 H     1 <1>   0.0000 
 16 H        5.0780     1.2800    -0.7740 H     1 <1>   0.0000 
 17 C        6.0470     2.7280     0.5070 C.3   1 <1>   0.1380 
 18 H        6.1170     3.5120    -0.2580 H     1 <1>   0.0000 
 19 H        5.8590     3.2330     1.4620 H     1 <1>   0.0000 
 20 C        7.3430     1.9750     0.6160 C.2   1 <1>  -0.2880 
 21 H        7.4050     1.2300     1.4070 H     1 <1>   0.1500 
 22 C        8.4000     2.1850    -0.1840 C.2   1 <1>  -0.2880 
 23 H        8.3330     2.9290    -0.9760 H     1 <1>   0.1500 
 24 C        9.6950     1.4290    -0.0750 C.3   1 <1>   0.1380 
 25 H        9.9270     0.9850    -1.0510 H     1 <1>   0.0000 
 26 H        9.5850     0.5740     0.6060 H     1 <1>   0.0000 
 27 C       10.8800     2.2850     0.4000 C.3   1 <1>   0.2800 
 28 H       10.6540     2.7200     1.3800 H     1 <1>   0.0000 
 29 O       12.0220     1.4410     0.5760 O.3   1 <1>  -0.6800 
 30 H       12.2570     1.0720    -0.2920 H     1 <1>   0.4000 
 31 C       11.2540     3.4000    -0.5690 C.3   1 <1>   0.0000 
 32 H       12.1540     3.9190    -0.2230 H     1 <1>   0.0000 
 33 H       11.4870     2.9960    -1.5610 H     1 <1>   0.0000 
 34 H       10.4520     4.1370    -0.6710 H     1 <1>   0.0000 
@<TRIPOS>BOND
  1   1   2  1   
  2   2   3  1   
  3   3   4  1   
  4   3   6  1   
  5   3   8  1   
  6   4   5  1   
  7   6   7  1   
  8   8   9  1   
  9   8  10  1   
 10   8  11  1   
 11  11  12  1   
 12  11  13  1   
 13  11  14  1   
 14  14  15  1   
 15  14  16  1   
 16  14  17  1   
 17  17  18  1   
 18  17  19  1   
 19  17  20  1   
 20  20  21  1   
 21  20  22  2   
 22  22  23  1   
 23  22  24  1   
 24  24  25  1   
 25  24  26  1   
 26  24  27  1   
 27  27  28  1   
 28  27  29  1   
 29  27  31  1   
 30  29  30  1   
 31  31  32  1   
 32  31  33  1   
 33  31  34  1   
@<TRIPOS>SUBSTRUCTURE
  1 ****  17 GROUP 4 **** **** 0

# MOE 2022.02 (io_trps.svl 2020.11)

@<TRIPOS>MOLECULE
FOD165
22 21 1 0 0 
SMALL
USER_CHARGES


@<TRIPOS>ATOM
  1 H       -0.3780    -2.7010    -0.6710 H     1 <1>   0.0000 
  2 C       -0.1730    -2.0580     0.1920 C.3   1 <1>   0.2610 
  3 H       -0.4940    -2.5810     1.0980 H     1 <1>   0.0000 
  4 C        1.2680    -1.8060     0.2830 C.1   1 <1>   0.3570 
  5 N        2.4190    -1.6800     0.3710 N.1   1 <1>  -0.5570 
  6 C       -0.9750    -0.7820     0.0330 C.2   1 <1>   0.5690 
  7 O       -0.4330     0.2930    -0.2300 O.2   1 <1>  -0.5700 
  8 N       -2.3630    -0.8790     0.1750 N.am  1 <1>  -0.6600 
  9 C       -3.0980    -2.1220     0.4260 C.3   1 <1>   0.3000 
 10 H       -4.0420    -2.0870    -0.1290 H     1 <1>   0.0000 
 11 H       -2.5360    -2.9750     0.0370 H     1 <1>   0.0000 
 12 C       -3.3700    -2.3310     1.9080 C.3   1 <1>   0.0000 
 13 H       -3.9840    -1.5230     2.3170 H     1 <1>   0.0000 
 14 H       -2.4390    -2.3620     2.4830 H     1 <1>   0.0000 
 15 H       -3.9020    -3.2750     2.0670 H     1 <1>   0.0000 
 16 C       -3.1560     0.3480     0.0580 C.3   1 <1>   0.3000 
 17 H       -4.0280     0.2730     0.7150 H     1 <1>   0.0000 
 18 H       -2.5640     1.2020     0.4070 H     1 <1>   0.0000 
 19 C       -3.5950     0.6000    -1.3760 C.3   1 <1>   0.0000 
 20 H       -4.1810     1.5220    -1.4370 H     1 <1>   0.0000 
 21 H       -2.7310     0.6970    -2.0410 H     1 <1>   0.0000 
 22 H       -4.2130    -0.2230    -1.7500 H     1 <1>   0.0000 
@<TRIPOS>BOND
  1   1   2  1   
  2   2   3  1   
  3   2   4  1   
  4   2   6  1   
  5   4   5  3   
  6   6   7  2   
  7   6   8  am  
  8   8   9  1   
  9   8  16  1   
 10   9  10  1   
 11   9  11  1   
 12   9  12  1   
 13  12  13  1   
 14  12  14  1   
 15  12  15  1   
 16  16  17  1   
 17  16  18  1   
 18  16  19  1   
 19  19  20  1   
 20  19  21  1   
 21  19  22  1   
@<TRIPOS>SUBSTRUCTURE
  1 ****   6 GROUP 4 **** **** 0

# MOE 2022.02 (io_trps.svl 2020.11)

@<TRIPOS>MOLECULE
FOD166
33 32 1 0 0 
SMALL
USER_CHARGES


@<TRIPOS>ATOM
  1 H        2.2990    -3.1510     0.1510 H     1 <1>   0.4000 
  2 N        1.3180    -2.8960    -0.0310 N.2   1 <1>  -0.8500 
  3 C        1.1730    -1.7370     0.5230 C.2   1 <1>   0.5500 
  4 N        2.1740    -1.0740     1.1540 N.pl3 1 <1>  -0.4710 
  5 H        2.0570    -0.1920     1.6370 H     1 <1>   0.4000 
  6 O        3.4330    -1.6650     1.1380 O.3   1 <1>  -0.2590 
  7 C        4.2600    -0.8720     0.2760 C.3   1 <1>   0.2800 
  8 H        4.3470     0.1370     0.6960 H     1 <1>   0.0000 
  9 H        3.8040    -0.8120    -0.7210 H     1 <1>   0.0000 
 10 C        5.6290    -1.5450     0.1860 C.3   1 <1>   0.0000 
 11 H        5.4850    -2.5790    -0.1530 H     1 <1>   0.0000 
 12 H        6.0580    -1.6170     1.1950 H     1 <1>   0.0000 
 13 C        6.5740    -0.8040    -0.7590 C.3   1 <1>   0.3310 
 14 H        6.1040    -0.6570    -1.7380 H     1 <1>   0.0000 
 15 C        6.9310     0.5560    -0.1770 C.2   1 <1>   0.4490 
 16 H        7.6540     0.5510     0.6570 H     1 <1>   0.0600 
 17 O        6.3970     1.6000    -0.5420 O.2   1 <1>  -0.5700 
 18 N        7.8180    -1.5680    -0.9370 N.3   1 <1>  -0.9900 
 19 H        7.5960    -2.5000    -1.2910 H     1 <1>   0.3600 
 20 H        8.3800    -1.1280    -1.6680 H     1 <1>   0.3600 
 21 N       -0.0110    -1.0800     0.5030 N.pl3 1 <1>  -0.8190 
 22 H       -0.0950    -0.1870     0.9730 H     1 <1>   0.4000 
 23 C       -1.1980    -1.6000    -0.1720 C.3   1 <1>   0.4300 
 24 H       -0.9200    -1.9960    -1.1570 H     1 <1>   0.0000 
 25 C       -1.7820    -2.7580     0.6280 C.2   1 <1>   0.4490 
 26 H       -1.0980    -3.6030     0.8160 H     1 <1>   0.0600 
 27 O       -2.9480    -2.8070     1.0180 O.2   1 <1>  -0.5700 
 28 C       -2.2310    -0.4940    -0.3510 C.3   1 <1>   0.0610 
 29 H       -2.4550     0.0080     0.5970 H     1 <1>   0.0000 
 30 H       -3.1740    -0.8840    -0.7500 H     1 <1>   0.0000 
 31 C       -1.7160     0.5190    -1.3320 C.2   1 <1>   0.4490 
 32 H       -1.6370     0.1840    -2.3810 H     1 <1>   0.0600 
 33 O       -1.3730     1.6500    -1.0000 O.2   1 <1>  -0.5700 
@<TRIPOS>BOND
  1   1   2  1   
  2   2   3  2   
  3   3   4  1   
  4   3  21  1   
  5   4   5  1   
  6   4   6  1   
  7   6   7  1   
  8   7   8  1   
  9   7   9  1   
 10   7  10  1   
 11  10  11  1   
 12  10  12  1   
 13  10  13  1   
 14  13  14  1   
 15  13  15  1   
 16  13  18  1   
 17  15  16  1   
 18  15  17  2   
 19  18  19  1   
 20  18  20  1   
 21  21  22  1   
 22  21  23  1   
 23  23  24  1   
 24  23  25  1   
 25  23  28  1   
 26  25  26  1   
 27  25  27  2   
 28  28  29  1   
 29  28  30  1   
 30  28  31  1   
 31  31  32  1   
 32  31  33  2   
@<TRIPOS>SUBSTRUCTURE
  1 ****   4 GROUP 4 **** **** 0

# MOE 2022.02 (io_trps.svl 2020.11)

@<TRIPOS>MOLECULE
FOD167
20 19 1 0 0 
SMALL
USER_CHARGES


@<TRIPOS>ATOM
  1 H        5.3670    -0.9720     1.2070 H     1 <1>   0.0600 
  2 C        5.2400    -1.3930     0.1950 C.2   1 <1>   0.4490 
  3 O        6.1400    -1.3090    -0.6370 O.2   1 <1>  -0.5700 
  4 C        3.9800    -2.1670    -0.0530 C.3   1 <1>   0.1220 
  5 H        4.0700    -3.1340     0.4510 H     1 <1>   0.0000 
  6 H        3.8740    -2.3220    -1.1310 H     1 <1>   0.0000 
  7 C        2.7450    -1.4750     0.4650 C.2   1 <1>   0.4480 
  8 O        2.8190    -0.4860     1.1920 O.2   1 <1>  -0.5700 
  9 C        1.4180    -2.1210     0.1070 C.3   1 <1>   0.0610 
 10 H        1.4620    -2.4550    -0.9370 H     1 <1>   0.0000 
 11 H        1.3230    -3.0110     0.7420 H     1 <1>   0.0000 
 12 C        0.2220    -1.1860     0.3120 C.3   1 <1>   0.2700 
 13 H        0.2470    -0.7470     1.3170 H     1 <1>   0.0000 
 14 N       -1.0180    -1.9600     0.1760 N.3   1 <1>  -0.9900 
 15 H       -1.8210    -1.3360     0.2670 H     1 <1>   0.3600 
 16 H       -1.0970    -2.6220     0.9480 H     1 <1>   0.3600 
 17 C        0.2010    -0.0560    -0.7190 C.3   1 <1>   0.0000 
 18 H        1.0940     0.5710    -0.6380 H     1 <1>   0.0000 
 19 H        0.1580    -0.4460    -1.7420 H     1 <1>   0.0000 
 20 H       -0.6680     0.5940    -0.5700 H     1 <1>   0.0000 
@<TRIPOS>BOND
  1   1   2  1   
  2   2   3  2   
  3   2   4  1   
  4   4   5  1   
  5   4   6  1   
  6   4   7  1   
  7   7   8  2   
  8   7   9  1   
  9   9  10  1   
 10   9  11  1   
 11   9  12  1   
 12  12  13  1   
 13  12  14  1   
 14  12  17  1   
 15  14  15  1   
 16  14  16  1   
 17  17  18  1   
 18  17  19  1   
 19  17  20  1   
@<TRIPOS>SUBSTRUCTURE
  1 ****   7 GROUP 4 **** **** 0

# MOE 2022.02 (io_trps.svl 2020.11)

@<TRIPOS>MOLECULE
FOD168
26 27 1 0 0 
SMALL
USER_CHARGES


@<TRIPOS>ATOM
  1 H       -1.1710     1.3090     0.1770 H     1 <1>   0.5000 
  2 O       -0.1920     1.2220     0.2180 O.3   1 <1>  -0.6500 
  3 C        0.3040     2.4600     0.0480 C.2   1 <1>   0.7060 
  4 O       -0.4310     3.4160    -0.1130 O.2   1 <1>  -0.5700 
  5 C        1.7900     2.5040     0.0810 C.2   1 <1>   0.3030 
  6 C        2.5110     1.3670     0.1090 C.2   1 <1>  -0.1780 
  7 H        2.1690     0.3430     0.1240 H     1 <1>   0.1500 
  8 C        3.8940     1.8000     0.1000 C.ar  1 <1>   0.0280 
  9 C        5.0410     1.0210     0.1240 C.ar  1 <1>  -0.1500 
 10 H        4.9860    -0.0620     0.1480 H     1 <1>   0.1500 
 11 C        6.2580     1.6880     0.1200 C.ar  1 <1>   0.0820 
 12 O        7.4300     0.9900     0.1430 O.3   1 <1>  -0.5320 
 13 H        7.2630     0.0340     0.1590 H     1 <1>   0.4500 
 14 C        6.3060     3.0920     0.0960 C.ar  1 <1>   0.0820 
 15 O        7.5310     3.6980     0.0990 O.3   1 <1>  -0.5320 
 16 H        7.4570     4.6640     0.0760 H     1 <1>   0.4500 
 17 C        5.1360     3.8630     0.0710 C.ar  1 <1>  -0.1500 
 18 H        5.2370     4.9390     0.0620 H     1 <1>   0.1500 
 19 C        3.9070     3.2120     0.0670 C.ar  1 <1>   0.2970 
 20 N        2.5900     3.6610     0.0530 N.2   1 <1>   0.0140 
 21 C        2.1150     4.8610     0.0310 C.2   1 <1>   0.2790 
 22 H        1.0340     5.0380     0.1010 H     1 <1>   0.0600 
 23 C        2.9680     6.0830    -0.0640 C.3   1 <1>   0.0610 
 24 H        3.6130     6.0470    -0.9450 H     1 <1>   0.0000 
 25 H        3.5460     6.2200     0.8540 H     1 <1>   0.0000 
 26 H        2.3100     6.9510    -0.1740 H     1 <1>   0.0000 
@<TRIPOS>BOND
  1   1   2  1   
  2   2   3  1   
  3   3   4  2   
  4   3   5  1   
  5   5   6  2   
  6   5  20  1   
  7   6   7  1   
  8   6   8  1   
  9   8   9  ar  
 10   8  19  ar  
 11   9  10  1   
 12   9  11  ar  
 13  11  12  1   
 14  11  14  ar  
 15  12  13  1   
 16  14  15  1   
 17  14  17  ar  
 18  15  16  1   
 19  17  18  1   
 20  17  19  ar  
 21  19  20  1   
 22  20  21  2   
 23  21  22  1   
 24  21  23  1   
 25  23  24  1   
 26  23  25  1   
 27  23  26  1   
@<TRIPOS>SUBSTRUCTURE
  1 ****  19 GROUP 4 **** **** 0

# MOE 2022.02 (io_trps.svl 2020.11)

@<TRIPOS>MOLECULE
FOD169
15 14 1 0 0 
SMALL
USER_CHARGES


@<TRIPOS>ATOM
  1 H       -0.7170    -1.4270     0.0030 H     1 <1>   0.5000 
  2 O        0.0100    -2.0840    -0.0040 O.3   1 <1>  -0.6500 
  3 C        1.1340    -1.3450     0.0030 C.2   1 <1>   0.7060 
  4 O        1.0720    -0.1260     0.0160 O.2   1 <1>  -0.5700 
  5 C        2.3820    -2.1530    -0.0060 C.2   1 <1>   0.1540 
  6 CL       2.2510    -3.8770    -0.0230 Cl    1 <1>  -0.1400 
  7 C        3.5610    -1.5020    -0.0010 C.2   1 <1>  -0.1500 
  8 H        3.5330    -0.4110     0.0100 H     1 <1>   0.1500 
  9 C        4.8880    -2.1040    -0.0080 C.2   1 <1>  -0.1500 
 10 H        4.9110    -3.1930    -0.0180 H     1 <1>   0.1500 
 11 C        6.0590    -1.4460    -0.0030 C.2   1 <1>   0.1540 
 12 CL       6.2120     0.2700     0.0130 Cl    1 <1>  -0.1400 
 13 C        7.3230    -2.2350    -0.0120 C.2   1 <1>   0.4960 
 14 H        7.1950    -3.3300    -0.0210 H     1 <1>   0.0600 
 15 O        8.4430    -1.7390    -0.0080 O.2   1 <1>  -0.5700 
@<TRIPOS>BOND
  1   1   2  1   
  2   2   3  1   
  3   3   4  2   
  4   3   5  1   
  5   5   6  1   
  6   5   7  2   
  7   7   8  1   
  8   7   9  1   
  9   9  10  1   
 10   9  11  2   
 11  11  12  1   
 12  11  13  1   
 13  13  14  1   
 14  13  15  2   
@<TRIPOS>SUBSTRUCTURE
  1 ****   7 GROUP 4 **** **** 0

# MOE 2022.02 (io_trps.svl 2020.11)

@<TRIPOS>MOLECULE
FOD170
16 15 1 0 0 
SMALL
USER_CHARGES


@<TRIPOS>ATOM
  1 H       -1.0210     0.8810    -0.7190 H     1 <1>   0.0600 
  2 C       -0.2130     0.1900    -0.4340 C.2   1 <1>   0.5100 
  3 O       -0.3800    -0.9860    -0.1580 O.2   1 <1>  -0.5700 
  4 C        1.1600     0.8160    -0.4050 C.2   1 <1>   0.5090 
  5 O        1.2530     2.0020    -0.6940 O.2   1 <1>  -0.5700 
  6 C        2.3060    -0.0840    -0.0190 C.3   1 <1>   0.0610 
  7 H        2.3400    -0.9140    -0.7350 H     1 <1>   0.0000 
  8 H        2.1040    -0.4780     0.9830 H     1 <1>   0.0000 
  9 C        3.6190     0.6880    -0.0350 C.3   1 <1>   0.2300 
 10 H        3.5780     1.5250     0.6710 H     1 <1>   0.0000 
 11 H        3.8130     1.0920    -1.0340 H     1 <1>   0.0000 
 12 S        4.9920    -0.4130     0.4340 S.3   1 <1>  -0.4600 
 13 C        6.3460     0.7800     0.3150 C.3   1 <1>   0.2300 
 14 H        7.2870     0.2850     0.5720 H     1 <1>   0.0000 
 15 H        6.1880     1.6060     1.0130 H     1 <1>   0.0000 
 16 H        6.4240     1.1680    -0.7040 H     1 <1>   0.0000 
@<TRIPOS>BOND
  1   1   2  1   
  2   2   3  2   
  3   2   4  1   
  4   4   5  2   
  5   4   6  1   
  6   6   7  1   
  7   6   8  1   
  8   6   9  1   
  9   9  10  1   
 10   9  11  1   
 11   9  12  1   
 12  12  13  1   
 13  13  14  1   
 14  13  15  1   
 15  13  16  1   
@<TRIPOS>SUBSTRUCTURE
  1 ****   6 GROUP 4 **** **** 0

# MOE 2022.02 (io_trps.svl 2020.11)

@<TRIPOS>MOLECULE
FOD171
25 25 1 0 0 
SMALL
USER_CHARGES


@<TRIPOS>ATOM
  1 H        7.7410    -0.3240    -2.0930 H     1 <1>   0.0600 
  2 C        7.5980    -0.9820    -1.2190 C.2   1 <1>   0.4960 
  3 O        8.4740    -1.7570    -0.8510 O.2   1 <1>  -0.5700 
  4 C        6.2680    -0.8420    -0.5570 C.2   1 <1>   0.0910 
  5 O        5.3860     0.0330    -1.1700 O.3   1 <1>  -0.1530 
  6 C        4.0430     0.0660    -0.8260 C.2   1 <1>  -0.0610 
  7 C        3.2180    -0.9690    -1.0720 C.2   1 <1>  -0.1500 
  8 H        3.6090    -1.8840    -1.5090 H     1 <1>   0.1500 
  9 C        1.7990    -0.8930    -0.7980 C.2   1 <1>   0.0140 
 10 C        0.8870    -1.9870    -1.2440 C.2   1 <1>   0.4960 
 11 H        1.3780    -2.8060    -1.7960 H     1 <1>   0.0600 
 12 O       -0.3190    -2.0010    -1.0290 O.2   1 <1>  -0.5700 
 13 C        1.2860     0.1440    -0.1120 C.2   1 <1>  -0.2880 
 14 H        0.2230     0.1830     0.1190 H     1 <1>   0.1500 
 15 C        2.1410     1.2730     0.3920 C.3   1 <1>   0.1380 
 16 H        1.6030     2.2200     0.2580 H     1 <1>   0.0000 
 17 H        2.2540     1.1340     1.4760 H     1 <1>   0.0000 
 18 C        3.5300     1.3910    -0.2930 C.3   1 <1>   0.4080 
 19 H        3.4220     2.0520    -1.1630 H     1 <1>   0.0000 
 20 N        4.4890     2.0350     0.6130 N.3   1 <1>  -0.9900 
 21 H        4.5950     1.4670     1.4520 H     1 <1>   0.3600 
 22 H        4.1150     2.9310     0.9230 H     1 <1>   0.3600 
 23 C        6.0540    -1.5170     0.5860 C.2   1 <1>  -0.3000 
 24 H        5.1300    -1.4340     1.1440 H     1 <1>   0.1500 
 25 H        6.8190    -2.1650     1.0050 H     1 <1>   0.1500 
@<TRIPOS>BOND
  1   1   2  1   
  2   2   3  2   
  3   2   4  1   
  4   4   5  1   
  5   4  23  2   
  6   5   6  1   
  7   6   7  2   
  8   6  18  1   
  9   7   8  1   
 10   7   9  1   
 11   9  10  1   
 12   9  13  2   
 13  10  11  1   
 14  10  12  2   
 15  13  14  1   
 16  13  15  1   
 17  15  16  1   
 18  15  17  1   
 19  15  18  1   
 20  18  19  1   
 21  18  20  1   
 22  20  21  1   
 23  20  22  1   
 24  23  24  1   
 25  23  25  1   
@<TRIPOS>SUBSTRUCTURE
  1 ****   6 GROUP 4 **** **** 0

# MOE 2022.02 (io_trps.svl 2020.11)

@<TRIPOS>MOLECULE
FOD172
23 22 1 0 0 
SMALL
USER_CHARGES


@<TRIPOS>ATOM
  1 H        8.9970     1.8080     0.3580 H     1 <1>   0.0600 
  2 C        8.1250     1.2540    -0.0210 C.2   1 <1>   0.5100 
  3 O        8.1890     0.2130    -0.6550 O.2   1 <1>  -0.5700 
  4 C        6.7920     1.8870     0.3000 C.2   1 <1>   0.5090 
  5 O        6.7870     2.9560     0.8970 O.2   1 <1>  -0.5700 
  6 C        5.5590     1.1450    -0.1610 C.3   1 <1>   0.0610 
  7 H        5.5870     0.1330     0.2570 H     1 <1>   0.0000 
  8 H        5.5860     1.0820    -1.2540 H     1 <1>   0.0000 
  9 C        4.2820     1.8560     0.2910 C.3   1 <1>   0.0000 
 10 H        4.2910     2.8890    -0.0780 H     1 <1>   0.0000 
 11 H        4.2650     1.9130     1.3870 H     1 <1>   0.0000 
 12 C        3.0280     1.1340    -0.2060 C.3   1 <1>   0.0000 
 13 H        3.0830     0.0800     0.0970 H     1 <1>   0.0000 
 14 H        3.0120     1.1360    -1.3040 H     1 <1>   0.0000 
 15 C        1.7360     1.7390     0.3330 C.3   1 <1>   0.3970 
 16 H        1.7280     1.7520     1.4290 H     1 <1>   0.0000 
 17 N        1.6220     3.1940    -0.0910 N.4   1 <1>  -0.8530 
 18 H1       2.0200     3.3700    -1.0150 H     1 <1>   0.4500 
 19 H2       1.8970     3.8750     0.6150 H     1 <1>   0.4500 
 20 H3       0.5830     3.2580    -0.2480 H     1 <1>   0.4500 
 21 C        0.4540     0.9900    -0.1410 C.2   1 <1>   0.9060 
 22 O       -0.4150     1.8480    -0.5120 O.co2 1 <1>  -0.9000 
 23 O        0.4590    -0.2570    -0.1120 O.co2 1 <1>  -0.9000 
@<TRIPOS>BOND
  1   1   2  1   
  2   2   3  2   
  3   2   4  1   
  4   4   5  2   
  5   4   6  1   
  6   6   7  1   
  7   6   8  1   
  8   6   9  1   
  9   9  10  1   
 10   9  11  1   
 11   9  12  1   
 12  12  13  1   
 13  12  14  1   
 14  12  15  1   
 15  15  16  1   
 16  15  17  1   
 17  15  21  1   
 18  17  18  1   
 19  17  19  1   
 20  17  20  1   
 21  21  22  ar  
 22  21  23  ar  
@<TRIPOS>SUBSTRUCTURE
  1 ****   9 GROUP 4 **** **** 0

# MOE 2022.02 (io_trps.svl 2020.11)

@<TRIPOS>MOLECULE
FOD173
31 31 1 0 0 
SMALL
USER_CHARGES


@<TRIPOS>ATOM
  1 H        4.3020    -0.1770     2.6960 H     1 <1>   0.4000 
  2 O        4.3070    -0.5130     1.7720 O.3   1 <1>  -0.3370 
  3 N        3.1220    -1.2570     1.7640 N.2   1 <1>  -0.5130 
  4 C        2.7820    -1.7770     0.6210 C.2   1 <1>   0.5300 
  5 S        3.7120    -1.6620    -0.8720 S.3   1 <1>  -0.3710 
  6 C        5.2800    -2.4150    -0.3350 C.3   1 <1>   0.2300 
  7 H        5.4090    -3.3560    -0.8810 H     1 <1>   0.0000 
  8 H        5.2460    -2.6860     0.7260 H     1 <1>   0.0000 
  9 C        6.4660    -1.4900    -0.6270 C.3   1 <1>   0.5640 
 10 H        6.7200    -1.4760    -1.6920 H     1 <1>   0.0000 
 11 N        6.1530    -0.0650    -0.2500 N.4   1 <1>  -0.8530 
 12 H1       7.0180     0.4350     0.0140 H     1 <1>   0.4500 
 13 H2       5.5330    -0.0450     0.5780 H     1 <1>   0.4500 
 14 H3       5.6610     0.4420    -0.9950 H     1 <1>   0.4500 
 15 C        7.6860    -1.9480     0.1460 C.2   1 <1>   0.4490 
 16 H        8.0100    -2.9930     0.0020 H     1 <1>   0.0600 
 17 O        8.3050    -1.1590     0.8590 O.2   1 <1>  -0.5700 
 18 C        1.4710    -2.5330     0.5080 C.3   1 <1>   0.2040 
 19 H        1.1940    -2.9190     1.4970 H     1 <1>   0.0000 
 20 H        1.6010    -3.4120    -0.1340 H     1 <1>   0.0000 
 21 C        0.3560    -1.6570    -0.0110 C.ar  1 <1>  -0.1440 
 22 C       -0.2620    -0.7240     0.8330 C.ar  1 <1>  -0.1500 
 23 H        0.0400    -0.6360     1.8750 H     1 <1>   0.1500 
 24 C       -1.2750     0.1050     0.3490 C.ar  1 <1>  -0.1500 
 25 H       -1.7520     0.8230     1.0110 H     1 <1>   0.1500 
 26 C       -1.6770     0.0110    -0.9820 C.ar  1 <1>  -0.1500 
 27 H       -2.4660     0.6580    -1.3580 H     1 <1>   0.1500 
 28 C       -1.0690    -0.9120    -1.8290 C.ar  1 <1>  -0.1500 
 29 H       -1.3850    -0.9860    -2.8670 H     1 <1>   0.1500 
 30 C       -0.0570    -1.7440    -1.3480 C.ar  1 <1>  -0.1500 
 31 H        0.4040    -2.4580    -2.0270 H     1 <1>   0.1500 
@<TRIPOS>BOND
  1   1   2  1   
  2   2   3  1   
  3   3   4  2   
  4   4   5  1   
  5   4  18  1   
  6   5   6  1   
  7   6   7  1   
  8   6   8  1   
  9   6   9  1   
 10   9  10  1   
 11   9  11  1   
 12   9  15  1   
 13  11  12  1   
 14  11  13  1   
 15  11  14  1   
 16  15  16  1   
 17  15  17  2   
 18  18  19  1   
 19  18  20  1   
 20  18  21  1   
 21  21  22  ar  
 22  21  30  ar  
 23  22  23  1   
 24  22  24  ar  
 25  24  25  1   
 26  24  26  ar  
 27  26  27  1   
 28  26  28  ar  
 29  28  29  1   
 30  28  30  ar  
 31  30  31  1   
@<TRIPOS>SUBSTRUCTURE
  1 ****   4 GROUP 4 **** **** 0

# MOE 2022.02 (io_trps.svl 2020.11)

@<TRIPOS>MOLECULE
FOD174
21 20 1 0 0 
SMALL
USER_CHARGES


@<TRIPOS>ATOM
  1 H        7.8030    -0.6780    -0.6150 H     1 <1>   0.5000 
  2 O        7.0700    -1.2850    -0.8520 O.3   1 <1>  -0.6500 
  3 C        6.0310    -0.9350    -0.0770 C.2   1 <1>   0.6590 
  4 O        6.1140    -0.0160     0.7240 O.2   1 <1>  -0.5700 
  5 C        4.8200    -1.7940    -0.3010 C.3   1 <1>   0.0610 
  6 H        5.0740    -2.8020     0.0450 H     1 <1>   0.0000 
  7 H        4.6300    -1.8090    -1.3790 H     1 <1>   0.0000 
  8 C        3.5940    -1.2680     0.4600 C.3   1 <1>   0.3410 
  9 O        3.8750    -1.1530     1.8620 O.3   1 <1>  -0.6800 
 10 H        4.6690    -0.5900     1.9790 H     1 <1>   0.4000 
 11 C        3.1760     0.0990    -0.0860 C.2   1 <1>   0.4490 
 12 H        3.6760     0.9730     0.3660 H     1 <1>   0.0600 
 13 O        2.3800     0.2440    -1.0110 O.2   1 <1>  -0.5700 
 14 C        2.4030    -2.2270     0.3550 C.3   1 <1>   0.0000 
 15 H        1.5790    -1.8550     0.9780 H     1 <1>   0.0000 
 16 H        2.6710    -3.2060     0.7710 H     1 <1>   0.0000 
 17 P        1.7570    -2.4580    -1.3160 P.3   1 <1>   1.0070 
 18 H        1.1440    -1.3160    -1.8700 H     1 <1>  -0.0360 
 19 O        2.7100    -3.2920    -2.1290 O.2   1 <1>  -0.7000 
 20 O        0.4720    -3.3990    -0.9940 O.3   1 <1>  -0.7710 
 21 H        0.1450    -3.8660    -1.7880 H     1 <1>   0.5000 
@<TRIPOS>BOND
  1   1   2  1   
  2   2   3  1   
  3   3   4  2   
  4   3   5  1   
  5   5   6  1   
  6   5   7  1   
  7   5   8  1   
  8   8   9  1   
  9   8  11  1   
 10   8  14  1   
 11   9  10  1   
 12  11  12  1   
 13  11  13  2   
 14  14  15  1   
 15  14  16  1   
 16  14  17  1   
 17  17  18  1   
 18  17  19  2   
 19  17  20  1   
 20  20  21  1   
@<TRIPOS>SUBSTRUCTURE
  1 ****   8 GROUP 4 **** **** 0

# MOE 2022.02 (io_trps.svl 2020.11)

@<TRIPOS>MOLECULE
FOD175
36 36 1 0 0 
SMALL
USER_CHARGES


@<TRIPOS>ATOM
  1 H        2.0540    -4.7350    -0.9310 H     1 <1>   0.4000 
  2 O        1.6660    -3.8650    -1.1310 O.3   1 <1>  -0.6800 
  3 C        1.8790    -3.0290    -0.0010 C.3   1 <1>   0.2800 
  4 H        1.5320    -3.5650     0.8900 H     1 <1>   0.0000 
  5 C        3.3670    -2.6910     0.1280 C.3   1 <1>   0.0000 
  6 H        4.0000    -3.3130    -0.5150 H     1 <1>   0.0000 
  7 H        3.6720    -2.8590     1.1690 H     1 <1>   0.0000 
  8 C        3.4730    -1.2100    -0.2340 C.3   1 <1>   0.2300 
  9 H        3.5410    -1.0930    -1.3230 H     1 <1>   0.0000 
 10 S        4.9240    -0.4060     0.5300 S.3   1 <1>  -0.4600 
 11 C        6.2600    -1.2680    -0.3850 C.3   1 <1>   0.2300 
 12 H        5.9980    -1.2870    -1.4490 H     1 <1>   0.0000 
 13 H        6.3040    -2.3010    -0.0250 H     1 <1>   0.0000 
 14 C        7.6350    -0.6000    -0.2160 C.3   1 <1>   0.3310 
 15 H        8.3670    -1.1670    -0.8020 H     1 <1>   0.0000 
 16 C        8.1070    -0.6680     1.2350 C.2   1 <1>   0.4490 
 17 H        7.9420    -1.6320     1.7450 H     1 <1>   0.0600 
 18 O        8.7160     0.2390     1.8000 O.2   1 <1>  -0.5700 
 19 N        7.6470     0.7990    -0.6910 N.3   1 <1>  -0.9900 
 20 H        8.4910     1.2440    -0.3150 H     1 <1>   0.3600 
 21 H        6.8810     1.2920    -0.2200 H     1 <1>   0.3600 
 22 C        2.1420    -0.6300     0.2680 C.3   1 <1>   0.0000 
 23 H        2.1350    -0.5850     1.3660 H     1 <1>   0.0000 
 24 C        1.8390     0.7590    -0.2860 C.3   1 <1>   0.0000 
 25 H        1.8310     0.7590    -1.3820 H     1 <1>   0.0000 
 26 H        0.8620     1.1140     0.0560 H     1 <1>   0.0000 
 27 H        2.5840     1.4890     0.0440 H     1 <1>   0.0000 
 28 C        1.1360    -1.6960    -0.2070 C.3   1 <1>   0.0000 
 29 H        0.9340    -1.5550    -1.2790 H     1 <1>   0.0000 
 30 C       -0.2030    -1.6260     0.5420 C.3   1 <1>   0.0000 
 31 H       -0.6410    -0.6290     0.4200 H     1 <1>   0.0000 
 32 H       -0.0430    -1.7710     1.6170 H     1 <1>   0.0000 
 33 C       -1.2140    -2.6510     0.0470 C.3   1 <1>   0.0000 
 34 H       -2.1690    -2.5170     0.5660 H     1 <1>   0.0000 
 35 H       -1.3940    -2.5380    -1.0270 H     1 <1>   0.0000 
 36 H       -0.8750    -3.6740     0.2350 H     1 <1>   0.0000 
@<TRIPOS>BOND
  1   1   2  1   
  2   2   3  1   
  3   3   4  1   
  4   3   5  1   
  5   3  28  1   
  6   5   6  1   
  7   5   7  1   
  8   5   8  1   
  9   8   9  1   
 10   8  10  1   
 11   8  22  1   
 12  10  11  1   
 13  11  12  1   
 14  11  13  1   
 15  11  14  1   
 16  14  15  1   
 17  14  16  1   
 18  14  19  1   
 19  16  17  1   
 20  16  18  2   
 21  19  20  1   
 22  19  21  1   
 23  22  23  1   
 24  22  24  1   
 25  22  28  1   
 26  24  25  1   
 27  24  26  1   
 28  24  27  1   
 29  28  29  1   
 30  28  30  1   
 31  30  31  1   
 32  30  32  1   
 33  30  33  1   
 34  33  34  1   
 35  33  35  1   
 36  33  36  1   
@<TRIPOS>SUBSTRUCTURE
  1 ****   8 GROUP 4 **** **** 0

# MOE 2022.02 (io_trps.svl 2020.11)

@<TRIPOS>MOLECULE
FOD176
13 12 1 0 0 
SMALL
USER_CHARGES


@<TRIPOS>ATOM
  1 H        3.8290    -1.2260    -0.5480 H     1 <1>   0.4000 
  2 O        3.0310    -1.7840    -0.5670 O.3   1 <1>  -0.4000 
  3 O        2.5400    -1.4060     0.7520 O.3   1 <1>  -0.2800 
  4 C        1.2710    -0.7620     0.5750 C.3   1 <1>   0.2800 
  5 H        0.9300    -0.4990     1.5830 H     1 <1>   0.0000 
  6 C        0.2480    -1.7160    -0.0310 C.3   1 <1>   0.0000 
  7 H       -0.7470    -1.2620    -0.0520 H     1 <1>   0.0000 
  8 H        0.5160    -1.9980    -1.0540 H     1 <1>   0.0000 
  9 H        0.1980    -2.6420     0.5520 H     1 <1>   0.0000 
 10 C        1.4130     0.5290    -0.2230 C.3   1 <1>   0.0000 
 11 H        2.1780     1.1720     0.2250 H     1 <1>   0.0000 
 12 H        0.4670     1.0780    -0.2530 H     1 <1>   0.0000 
 13 H        1.7270     0.3320    -1.2540 H     1 <1>   0.0000 
@<TRIPOS>BOND
  1   1   2  1   
  2   2   3  1   
  3   3   4  1   
  4   4   5  1   
  5   4   6  1   
  6   4  10  1   
  7   6   7  1   
  8   6   8  1   
  9   6   9  1   
 10  10  11  1   
 11  10  12  1   
 12  10  13  1   
@<TRIPOS>SUBSTRUCTURE
  1 ****   4 GROUP 4 **** **** 0

# MOE 2022.02 (io_trps.svl 2020.11)

@<TRIPOS>MOLECULE
FOD177
11 10 1 0 0 
SMALL
USER_CHARGES


@<TRIPOS>ATOM
  1 H        2.8390    -1.3320    -1.7530 H     1 <1>   0.0600 
  2 C        2.6770    -0.4050    -1.1750 C.2   1 <1>   0.4490 
  3 O        3.5020     0.5060    -1.2140 O.2   1 <1>  -0.5700 
  4 C        1.4490    -0.3960    -0.2760 C.3   1 <1>   0.3920 
  5 H        1.6410    -1.1170     0.5260 H     1 <1>   0.0000 
  6 C        0.1320    -0.7900    -0.9120 C.2   1 <1>   0.2590 
  7 H       -0.6530    -1.1050    -0.2010 H     1 <1>   0.0600 
  8 S       -0.1940    -0.7030    -2.5540 S.2   1 <1>  -0.3800 
  9 N        1.2680     0.9400     0.3340 N.3   1 <1>  -0.9900 
 10 H        2.1680     1.2160     0.7400 H     1 <1>   0.3600 
 11 H        1.1430     1.6190    -0.4240 H     1 <1>   0.3600 
@<TRIPOS>BOND
  1   1   2  1   
  2   2   3  2   
  3   2   4  1   
  4   4   5  1   
  5   4   6  1   
  6   4   9  1   
  7   6   7  1   
  8   6   8  2   
  9   9  10  1   
 10   9  11  1   
@<TRIPOS>SUBSTRUCTURE
  1 ****   4 GROUP 4 **** **** 0

# MOE 2022.02 (io_trps.svl 2020.11)

