@<TRIPOS>MOLECULE
LCSOL001
33 36 1 0 0 
SMALL
USER_CHARGES


@<TRIPOS>ATOM
  1 H       -0.3590    -0.2450     2.0480 H     1 <1>   0.1500 
  2 C       -0.7490    -0.7540     1.1720 C.ar  1 <1>   0.1600 
  3 N       -2.0780    -0.6430     0.9900 N.ar  1 <1>  -0.6200 
  4 C       -2.6120    -1.2510    -0.0830 C.ar  1 <1>   0.7200 
  5 N       -3.9470    -1.1570    -0.2820 N.pl3 1 <1>  -0.8380 
  6 C       -4.6930    -1.7900    -1.3490 C.3   1 <1>   0.3690 
  7 H       -4.0940    -2.0840    -2.2170 H     1 <1>   0.0000 
  8 C       -5.6930    -0.6810    -1.7220 C.3   1 <1>   0.0000 
  9 H       -5.2840    -0.0670    -2.5330 H     1 <1>   0.0000 
 10 H       -6.6570    -1.0710    -2.0620 H     1 <1>   0.0000 
 11 C       -5.8220     0.1870    -0.4550 C.3   1 <1>   0.0000 
 12 H       -5.4750     1.2020    -0.6830 H     1 <1>   0.0000 
 13 H       -6.8560     0.2660    -0.1050 H     1 <1>   0.0000 
 14 C       -4.8860    -0.4680     0.5770 C.3   1 <1>   0.3690 
 15 H       -4.4410     0.2860     1.2340 H     1 <1>   0.0000 
 16 C       -5.6150    -1.5570     1.3970 C.3   1 <1>   0.0950 
 17 H       -6.3720    -1.0890     2.0380 H     1 <1>   0.0000 
 18 H       -4.8950    -2.0540     2.0600 H     1 <1>   0.0000 
 19 C       -6.2420    -2.6210     0.4930 C.3   1 <1>  -0.1900 
 20 C       -7.0850    -3.7050     1.1530 C.3   1 <1>  -0.2000 
 21 H       -7.2220    -3.6750     2.2260 H     1 <1>   0.1000 
 22 H       -7.0750    -4.7000     0.7280 H     1 <1>   0.1000 
 23 C       -7.7280    -2.6350     0.3570 C.3   1 <1>   0.4630 
 24 F       -8.5060    -1.6840     0.9760 F     1 <1>  -0.2320 
 25 F       -8.3270    -2.9310    -0.8450 F     1 <1>  -0.2320 
 26 C       -5.4050    -3.0130    -0.7260 C.3   1 <1>   0.0950 
 27 H       -4.6530    -3.7430    -0.4020 H     1 <1>   0.0000 
 28 H       -6.0230    -3.5040    -1.4860 H     1 <1>   0.0000 
 29 N       -1.8780    -1.9600    -0.9570 N.ar  1 <1>  -0.6200 
 30 C       -0.5530    -2.0430    -0.7360 C.ar  1 <1>   0.1600 
 31 H        0.0020    -2.6210    -1.4680 H     1 <1>   0.1500 
 32 C        0.0770    -1.4510     0.3280 C.ar  1 <1>  -0.1500 
 33 H        1.1410    -1.5280     0.4900 H     1 <1>   0.1500 
@<TRIPOS>BOND
  1   1   2  1   
  2   2   3  ar  
  3   2  32  ar  
  4   3   4  ar  
  5   4   5  1   
  6   4  29  ar  
  7   5   6  1   
  8   5  14  1   
  9   6   7  1   
 10   6   8  1   
 11   6  26  1   
 12   8   9  1   
 13   8  10  1   
 14   8  11  1   
 15  11  12  1   
 16  11  13  1   
 17  11  14  1   
 18  14  15  1   
 19  14  16  1   
 20  16  17  1   
 21  16  18  1   
 22  16  19  1   
 23  19  20  1   
 24  19  23  1   
 25  19  26  1   
 26  20  21  1   
 27  20  22  1   
 28  20  23  1   
 29  23  24  1   
 30  23  25  1   
 31  26  27  1   
 32  26  28  1   
 33  29  30  ar  
 34  30  31  1   
 35  30  32  ar  
 36  32  33  1   
@<TRIPOS>SUBSTRUCTURE
  1 ****   5 GROUP 4 **** **** 0

# MOE 2022.02 (io_trps.svl 2020.11)

@<TRIPOS>MOLECULE
LCSOL002
30 31 1 0 0 
SMALL
USER_CHARGES


@<TRIPOS>ATOM
  1 H       -0.3810    -3.4780     2.2980 H     1 <1>   0.4000 
  2 N        0.0050    -3.0270     1.4790 N.pl3 1 <1>  -0.8190 
  3 C       -0.8170    -2.2600     0.7180 C.2   1 <1>   0.6410 
  4 S       -2.4490    -2.1690     1.3380 S.3   1 <1>  -0.3710 
  5 C       -3.2250    -1.1450     0.0570 C.3   1 <1>   0.4110 
  6 H       -2.7010    -0.1860    -0.0130 H     1 <1>   0.0000 
  7 H       -3.1380    -1.6450    -0.9150 H     1 <1>   0.0000 
  8 C       -4.6590    -0.9110     0.3740 C.2   1 <1>  -0.1810 
  9 C       -5.2400     0.1980     1.0500 C.2   1 <1>   0.1080 
 10 C       -4.5610     1.3870     1.6160 C.3   1 <1>   0.1810 
 11 H       -3.8100     1.0840     2.3520 H     1 <1>   0.0000 
 12 H       -4.0610     1.9530     0.8240 H     1 <1>   0.0000 
 13 H       -5.2690     2.0580     2.1150 H     1 <1>   0.0000 
 14 N       -6.5690     0.0750     1.1440 N.2   1 <1>  -0.4100 
 15 O       -6.8790    -1.1270     0.5390 O.3   1 <1>  -0.0190 
 16 C       -5.7430    -1.7110     0.0780 C.2   1 <1>  -0.0400 
 17 C       -5.9100    -3.0150    -0.5900 C.3   1 <1>   0.1800 
 18 H       -6.8490    -3.0480    -1.1530 H     1 <1>   0.0000 
 19 H       -5.0930    -3.2080    -1.2910 H     1 <1>   0.0000 
 20 H       -5.9250    -3.8210     0.1500 H     1 <1>   0.0000 
 21 N       -0.4980    -1.6250    -0.3530 N.2   1 <1>  -0.6960 
 22 C        0.8920    -1.7790    -0.8060 C.3   1 <1>   0.2460 
 23 H        0.9430    -2.6010    -1.5290 H     1 <1>   0.0000 
 24 H        1.1840    -0.8660    -1.3360 H     1 <1>   0.0000 
 25 C        1.8600    -2.0130     0.3460 C.3   1 <1>   0.0000 
 26 H        1.8870    -1.1230     0.9890 H     1 <1>   0.0000 
 27 H        2.8750    -2.1770    -0.0310 H     1 <1>   0.0000 
 28 C        1.3920    -3.2130     1.1510 C.3   1 <1>   0.3690 
 29 H        1.9860    -3.3180     2.0640 H     1 <1>   0.0000 
 30 H        1.5080    -4.1330     0.5680 H     1 <1>   0.0000 
@<TRIPOS>BOND
  1   1   2  1   
  2   2   3  1   
  3   2  28  1   
  4   3   4  1   
  5   3  21  2   
  6   4   5  1   
  7   5   6  1   
  8   5   7  1   
  9   5   8  1   
 10   8   9  1   
 11   8  16  2   
 12   9  10  1   
 13   9  14  2   
 14  10  11  1   
 15  10  12  1   
 16  10  13  1   
 17  14  15  1   
 18  15  16  1   
 19  16  17  1   
 20  17  18  1   
 21  17  19  1   
 22  17  20  1   
 23  21  22  1   
 24  22  23  1   
 25  22  24  1   
 26  22  25  1   
 27  25  26  1   
 28  25  27  1   
 29  25  28  1   
 30  28  29  1   
 31  28  30  1   
@<TRIPOS>SUBSTRUCTURE
  1 ****   5 GROUP 4 **** **** 0

# MOE 2022.02 (io_trps.svl 2020.11)

@<TRIPOS>MOLECULE
LCSOL003
32 33 1 0 0 
SMALL
USER_CHARGES


@<TRIPOS>ATOM
  1 H       -1.1300    -0.6570    -1.2100 H     1 <1>   0.1500 
  2 C       -0.7880    -0.0590    -0.3790 C.2   1 <1>  -0.1500 
  3 C       -1.5080     0.3040     0.7850 C.2   1 <1>   0.1080 
  4 C       -2.9100    -0.0690     1.1630 C.3   1 <1>   0.4510 
  5 H       -2.8960    -1.1510     1.3350 H     1 <1>   0.0000 
  6 H       -3.2010     0.3990     2.1130 H     1 <1>   0.0000 
  7 N       -3.8690     0.2790     0.0860 N.3   1 <1>  -0.8100 
  8 C       -4.0340     1.7410     0.0220 C.3   1 <1>   0.2700 
  9 H       -3.0740     2.2510    -0.1120 H     1 <1>   0.0000 
 10 H       -4.5100     2.1400     0.9250 H     1 <1>   0.0000 
 11 H       -4.6330     2.0280    -0.8480 H     1 <1>   0.0000 
 12 C       -5.1750    -0.3870     0.3100 C.3   1 <1>   0.2700 
 13 H       -5.5220    -0.1750     1.3320 H     1 <1>   0.0000 
 14 C       -5.1000    -1.9070     0.0860 C.3   1 <1>   0.0000 
 15 H       -4.4920    -2.1390    -0.7980 H     1 <1>   0.0000 
 16 H       -4.6640    -2.4390     0.9370 H     1 <1>   0.0000 
 17 C       -6.5390    -2.3630    -0.1620 C.3   1 <1>   0.0000 
 18 H       -6.9470    -2.8730     0.7170 H     1 <1>   0.0000 
 19 H       -6.5790    -3.0690    -0.9980 H     1 <1>   0.0000 
 20 C       -7.3410    -1.1020    -0.4600 C.3   1 <1>   0.0000 
 21 H       -7.9860    -1.2210    -1.3360 H     1 <1>   0.0000 
 22 H       -7.9920    -0.8530     0.3860 H     1 <1>   0.0000 
 23 C       -6.3060    -0.0110    -0.6670 C.3   1 <1>   0.3400 
 24 H       -5.9590     0.0150    -1.7070 H     1 <1>   0.0000 
 25 F       -6.8480     1.1920    -0.3550 F     1 <1>  -0.3400 
 26 N       -0.7600     1.0610     1.6000 N.2   1 <1>  -0.4100 
 27 O        0.4600     1.2080     0.9610 O.3   1 <1>  -0.0190 
 28 C        0.4370     0.5380    -0.2210 C.2   1 <1>  -0.0400 
 29 C        1.6650     0.6020    -1.0320 C.3   1 <1>   0.1800 
 30 H        1.5720    -0.0110    -1.9340 H     1 <1>   0.0000 
 31 H        2.5230     0.2370    -0.4600 H     1 <1>   0.0000 
 32 H        1.8670     1.6320    -1.3400 H     1 <1>   0.0000 
@<TRIPOS>BOND
  1   1   2  1   
  2   2   3  1   
  3   2  28  2   
  4   3   4  1   
  5   3  26  2   
  6   4   5  1   
  7   4   6  1   
  8   4   7  1   
  9   7   8  1   
 10   7  12  1   
 11   8   9  1   
 12   8  10  1   
 13   8  11  1   
 14  12  13  1   
 15  12  14  1   
 16  12  23  1   
 17  14  15  1   
 18  14  16  1   
 19  14  17  1   
 20  17  18  1   
 21  17  19  1   
 22  17  20  1   
 23  20  21  1   
 24  20  22  1   
 25  20  23  1   
 26  23  24  1   
 27  23  25  1   
 28  26  27  1   
 29  27  28  1   
 30  28  29  1   
 31  29  30  1   
 32  29  31  1   
 33  29  32  1   
@<TRIPOS>SUBSTRUCTURE
  1 ****   7 GROUP 4 **** **** 0

# MOE 2022.02 (io_trps.svl 2020.11)

@<TRIPOS>MOLECULE
LCSOL004
36 38 1 0 0 
SMALL
USER_CHARGES


@<TRIPOS>ATOM
  1 H       -1.1850    -1.3300    -1.4860 H     1 <1>   0.4000 
  2 O       -0.7400    -1.6050    -0.6660 O.3   1 <1>  -0.6800 
  3 C       -0.1960    -2.9100    -0.9040 C.3   1 <1>   0.2800 
  4 H        0.3950    -2.8540    -1.8250 H     1 <1>   0.0000 
  5 C       -1.3640    -3.8860    -1.0890 C.3   1 <1>   0.0000 
  6 H       -2.0430    -3.5150    -1.8650 H     1 <1>   0.0000 
  7 H       -0.9800    -4.8570    -1.4260 H     1 <1>   0.0000 
  8 C       -2.1590    -4.0780     0.2050 C.3   1 <1>   0.0000 
  9 H       -2.9360    -4.8340     0.0480 H     1 <1>   0.0000 
 10 H       -2.6750    -3.1440     0.4610 H     1 <1>   0.0000 
 11 C       -1.2660    -4.4980     1.3720 C.3   1 <1>   0.0000 
 12 H       -1.8610    -4.5480     2.2910 H     1 <1>   0.0000 
 13 H       -0.8810    -5.5080     1.1880 H     1 <1>   0.0000 
 14 C       -0.0940    -3.5360     1.5710 C.3   1 <1>   0.0000 
 15 H       -0.4890    -2.5760     1.9200 H     1 <1>   0.0000 
 16 H        0.5590    -3.9140     2.3670 H     1 <1>   0.0000 
 17 C        0.7060    -3.3770     0.2670 C.3   1 <1>   0.3690 
 18 H        1.0410    -4.3920     0.0110 H     1 <1>   0.0000 
 19 N        1.8880    -2.5080     0.4320 N.pl3 1 <1>  -0.8220 
 20 C        3.1030    -2.9630    -0.0100 C.2   1 <1>   0.4620 
 21 N        3.2910    -4.1090    -0.6480 N.2   1 <1>  -0.3380 
 22 N        4.6060    -4.3500    -0.9950 N.2   1 <1>  -0.3380 
 23 C        5.3770    -3.3770    -0.5850 C.2   1 <1>   0.2930 
 24 C        6.8440    -3.3820    -0.8580 C.3   1 <1>  -0.0150 
 25 H        7.1290    -2.8050    -1.7320 H     1 <1>   0.1000 
 26 C        7.6410    -4.6360    -0.5920 C.3   1 <1>  -0.2000 
 27 H        8.4350    -4.8860    -1.2870 H     1 <1>   0.1000 
 28 H        7.1280    -5.4990    -0.1810 H     1 <1>   0.1000 
 29 C        7.8240    -3.4360     0.2890 C.3   1 <1>  -0.2000 
 30 H        7.4450    -3.4980     1.3040 H     1 <1>   0.1000 
 31 H        8.7440    -2.8710     0.1950 H     1 <1>   0.1000 
 32 S        4.5980    -2.0890     0.1910 S.3   1 <1>  -0.0800 
 33 C        1.7450    -1.1830     1.0140 C.3   1 <1>   0.3690 
 34 H        2.3230    -1.1030     1.9420 H     1 <1>   0.0000 
 35 H        0.7110    -0.9330     1.2670 H     1 <1>   0.0000 
 36 H        2.0860    -0.4120     0.3140 H     1 <1>   0.0000 
@<TRIPOS>BOND
  1   1   2  1   
  2   2   3  1   
  3   3   4  1   
  4   3   5  1   
  5   3  17  1   
  6   5   6  1   
  7   5   7  1   
  8   5   8  1   
  9   8   9  1   
 10   8  10  1   
 11   8  11  1   
 12  11  12  1   
 13  11  13  1   
 14  11  14  1   
 15  14  15  1   
 16  14  16  1   
 17  14  17  1   
 18  17  18  1   
 19  17  19  1   
 20  19  20  1   
 21  19  33  1   
 22  20  21  2   
 23  20  32  1   
 24  21  22  1   
 25  22  23  2   
 26  23  24  1   
 27  23  32  1   
 28  24  25  1   
 29  24  26  1   
 30  24  29  1   
 31  26  27  1   
 32  26  28  1   
 33  26  29  1   
 34  29  30  1   
 35  29  31  1   
 36  33  34  1   
 37  33  35  1   
 38  33  36  1   
@<TRIPOS>SUBSTRUCTURE
  1 ****  20 GROUP 4 **** **** 0

# MOE 2022.02 (io_trps.svl 2020.11)

@<TRIPOS>MOLECULE
LCSOL005
25 26 1 0 0 
SMALL
USER_CHARGES


@<TRIPOS>ATOM
  1 H        2.0420    -2.2050     0.2310 H     1 <1>   0.1500 
  2 C        1.5360    -1.2570     0.1070 C.ar  1 <1>  -0.1500 
  3 C        2.2390    -0.0650    -0.0700 C.ar  1 <1>   0.4100 
  4 N        3.6260    -0.0270    -0.1060 N.pl3 1 <1>  -0.8380 
  5 C        4.4520    -1.2070     0.0390 C.3   1 <1>   0.3690 
  6 H        4.2860    -1.6830     1.0120 H     1 <1>   0.0000 
  7 H        4.2410    -1.9310    -0.7560 H     1 <1>   0.0000 
  8 H        5.5190    -0.9670    -0.0220 H     1 <1>   0.0000 
  9 C        4.2490     1.2720    -0.3000 C.3   1 <1>   0.3690 
 10 H        5.3420     1.1990    -0.3080 H     1 <1>   0.0000 
 11 H        3.9810     1.9610     0.5090 H     1 <1>   0.0000 
 12 H        3.9500     1.7110    -1.2590 H     1 <1>   0.0000 
 13 N        1.5390     1.0990    -0.2090 N.ar  1 <1>  -0.3100 
 14 N        0.1630     1.1450    -0.1780 N.ar  1 <1>  -0.3100 
 15 C       -0.4890    -0.0060    -0.0180 C.ar  1 <1>   0.1660 
 16 C        0.1540    -1.2180     0.1240 C.ar  1 <1>  -0.1440 
 17 C       -0.8260    -2.3240     0.3280 C.3   1 <1>   0.1440 
 18 H       -0.5820    -3.2150    -0.2570 H     1 <1>   0.0000 
 19 H       -0.8950    -2.5780     1.3910 H     1 <1>   0.0000 
 20 C       -2.1240    -1.6640    -0.1700 C.3   1 <1>   0.0000 
 21 H       -3.0150    -2.0820     0.3090 H     1 <1>   0.0000 
 22 H       -2.2250    -1.8410    -1.2500 H     1 <1>   0.0000 
 23 C       -1.9750    -0.1550     0.0800 C.3   1 <1>   0.1440 
 24 H       -2.5060     0.4380    -0.6690 H     1 <1>   0.0000 
 25 H       -2.3130     0.1160     1.0860 H     1 <1>   0.0000 
@<TRIPOS>BOND
  1   1   2  1   
  2   2   3  ar  
  3   2  16  ar  
  4   3   4  1   
  5   3  13  ar  
  6   4   5  1   
  7   4   9  1   
  8   5   6  1   
  9   5   7  1   
 10   5   8  1   
 11   9  10  1   
 12   9  11  1   
 13   9  12  1   
 14  13  14  ar  
 15  14  15  ar  
 16  15  16  ar  
 17  15  23  1   
 18  16  17  1   
 19  17  18  1   
 20  17  19  1   
 21  17  20  1   
 22  20  21  1   
 23  20  22  1   
 24  20  23  1   
 25  23  24  1   
 26  23  25  1   
@<TRIPOS>SUBSTRUCTURE
  1 ****   2 GROUP 4 **** **** 0

# MOE 2022.02 (io_trps.svl 2020.11)

@<TRIPOS>MOLECULE
LCSOL006
23 24 1 0 0 
SMALL
USER_CHARGES


@<TRIPOS>ATOM
  1 H        2.4440     4.3080    -0.5040 H     1 <1>   0.1500 
  2 C        1.3940     4.5580    -0.4300 C.2   1 <1>   0.2280 
  3 N        0.4860     3.6720    -0.0940 N.2   1 <1>  -0.5650 
  4 C       -0.7840     4.2560    -0.0730 C.2   1 <1>   0.1410 
  5 C       -1.9660     3.4540     0.2880 C.2   1 <1>   0.7160 
  6 O       -1.8830     2.3640     0.8480 O.2   1 <1>  -0.5700 
  7 N       -3.1940     3.9900    -0.0580 N.am  1 <1>  -0.7300 
  8 H       -3.2420     4.8670    -0.5560 H     1 <1>   0.3700 
  9 C       -4.4340     3.3160     0.3030 C.3   1 <1>   0.3000 
 10 H       -4.4460     3.2140     1.3950 H     1 <1>   0.0000 
 11 C       -4.6420     1.9520    -0.3520 C.3   1 <1>   0.2800 
 12 H       -4.2130     1.9110    -1.3590 H     1 <1>   0.0000 
 13 H       -4.2140     1.1350     0.2370 H     1 <1>   0.0000 
 14 O       -6.0630     1.7450    -0.4760 O.3   1 <1>  -0.5600 
 15 C       -6.7260     2.9670    -0.1230 C.3   1 <1>   0.2800 
 16 H       -7.5430     3.1580    -0.8250 H     1 <1>   0.0000 
 17 H       -7.1560     2.8530     0.8780 H     1 <1>   0.0000 
 18 C       -5.6780     4.0540    -0.1540 C.3   1 <1>   0.3400 
 19 H       -5.5600     4.4640    -1.1630 H     1 <1>   0.0000 
 20 F       -5.9770     5.0650     0.6940 F     1 <1>  -0.3400 
 21 C       -0.7760     5.6040    -0.3970 C.2   1 <1>  -0.1100 
 22 H       -1.5950     6.3060    -0.4350 H     1 <1>   0.1500 
 23 S        0.8190     6.1380    -0.7440 S.3   1 <1>  -0.0800 
@<TRIPOS>BOND
  1   1   2  1   
  2   2   3  2   
  3   2  23  1   
  4   3   4  1   
  5   4   5  1   
  6   4  21  2   
  7   5   6  2   
  8   5   7  am  
  9   7   8  1   
 10   7   9  1   
 11   9  10  1   
 12   9  11  1   
 13   9  18  1   
 14  11  12  1   
 15  11  13  1   
 16  11  14  1   
 17  14  15  1   
 18  15  16  1   
 19  15  17  1   
 20  15  18  1   
 21  18  19  1   
 22  18  20  1   
 23  21  22  1   
 24  21  23  1   
@<TRIPOS>SUBSTRUCTURE
  1 ****   7 GROUP 4 **** **** 0

# MOE 2022.02 (io_trps.svl 2020.11)

@<TRIPOS>MOLECULE
LCSOL007
21 22 1 0 0 
SMALL
USER_CHARGES


@<TRIPOS>ATOM
  1 H       -0.1700     4.1570    -1.0970 H     1 <1>   0.1500 
  2 C       -0.3730     3.0950    -1.0550 C.2   1 <1>   0.1390 
  3 N       -1.3280     2.6480    -0.2320 N.2   1 <1>  -0.7070 
  4 N       -1.3170     1.3130    -0.4290 N.pl3 1 <1>   0.3140 
  5 C       -2.2480     0.4700     0.3050 C.3   1 <1>   0.2560 
  6 H       -1.8540    -0.5530     0.2750 H     1 <1>   0.0000 
  7 H       -2.2290     0.8010     1.3500 H     1 <1>   0.0000 
  8 C       -3.6400     0.5200    -0.2890 C.3   1 <1>   0.0000 
  9 H       -3.6500     0.2250    -1.3490 H     1 <1>   0.0000 
 10 C       -4.4810     1.7860    -0.0170 C.3   1 <1>   0.2100 
 11 H       -4.5660     2.4870    -0.8530 H     1 <1>   0.0000 
 12 H       -4.2110     2.3450     0.8860 H     1 <1>   0.0000 
 13 N       -5.6600     0.9060     0.1770 N.3   1 <1>  -0.7790 
 14 H       -6.1840     0.7490    -0.6850 H     1 <1>   0.3600 
 15 C       -4.7390    -0.2020     0.5150 C.3   1 <1>   0.2100 
 16 H       -4.5500    -0.2910     1.5920 H     1 <1>   0.0000 
 17 H       -5.0390    -1.1810     0.1310 H     1 <1>   0.0000 
 18 C       -0.3870     0.9030    -1.3420 C.2   1 <1>  -0.3020 
 19 H       -0.2560    -0.1360    -1.6070 H     1 <1>   0.1500 
 20 C        0.2330     2.0500    -1.7610 C.2   1 <1>   0.0570 
 21 BR       1.6050     2.2300    -3.0110 Br    1 <1>  -0.0570 
@<TRIPOS>BOND
  1   1   2  1   
  2   2   3  2   
  3   2  20  1   
  4   3   4  1   
  5   4   5  1   
  6   4  18  1   
  7   5   6  1   
  8   5   7  1   
  9   5   8  1   
 10   8   9  1   
 11   8  10  1   
 12   8  15  1   
 13  10  11  1   
 14  10  12  1   
 15  10  13  1   
 16  13  14  1   
 17  13  15  1   
 18  15  16  1   
 19  15  17  1   
 20  18  19  1   
 21  18  20  2   
 22  20  21  1   
@<TRIPOS>SUBSTRUCTURE
  1 ****   4 GROUP 4 **** **** 0

# MOE 2022.02 (io_trps.svl 2020.11)

@<TRIPOS>MOLECULE
LCSOL008
23 24 1 0 0 
SMALL
USER_CHARGES


@<TRIPOS>ATOM
  1 H       -5.1110     4.3200    -0.8210 H     1 <1>   0.1500 
  2 C       -4.1090     4.0240    -0.5280 C.ar  1 <1>  -0.1500 
  3 C       -3.8710     2.8100     0.1020 C.ar  1 <1>   0.3830 
  4 C       -4.9540     1.9070     0.3800 C.1   1 <1>   0.4840 
  5 N       -5.8620     1.2100     0.5830 N.1   1 <1>  -0.5570 
  6 N       -2.6420     2.3960     0.4880 N.ar  1 <1>  -0.6200 
  7 C       -1.5990     3.2130     0.2370 C.ar  1 <1>   0.3920 
  8 O       -0.4110     2.7090     0.6820 O.3   1 <1>  -0.3630 
  9 C        0.7560     3.1700     0.0080 C.3   1 <1>   0.3750 
 10 H        0.6140     3.1390    -1.0810 H     1 <1>   0.0000 
 11 H        0.9850     4.1950     0.3180 H     1 <1>   0.0000 
 12 C        1.9010     2.2900     0.4090 C.3   1 <1>  -0.1950 
 13 H        2.0790     2.3280     1.4780 H     1 <1>   0.1000 
 14 C        3.0930     2.1190    -0.4970 C.3   1 <1>  -0.2000 
 15 H        3.0930     2.6070    -1.4650 H     1 <1>   0.1000 
 16 H        4.0730     2.0490    -0.0380 H     1 <1>   0.1000 
 17 C        2.1380     0.9760    -0.2890 C.3   1 <1>  -0.2000 
 18 H        1.4820     0.7000    -1.1080 H     1 <1>   0.1000 
 19 H        2.4670     0.1370     0.3140 H     1 <1>   0.1000 
 20 C       -1.7490     4.4510    -0.3770 C.ar  1 <1>  -0.1500 
 21 H       -0.9100     5.1150    -0.5470 H     1 <1>   0.1500 
 22 C       -3.0240     4.8580    -0.7680 C.ar  1 <1>  -0.1500 
 23 H       -3.1680     5.8220    -1.2490 H     1 <1>   0.1500 
@<TRIPOS>BOND
  1   1   2  1   
  2   2   3  ar  
  3   2  22  ar  
  4   3   4  1   
  5   3   6  ar  
  6   4   5  3   
  7   6   7  ar  
  8   7   8  1   
  9   7  20  ar  
 10   8   9  1   
 11   9  10  1   
 12   9  11  1   
 13   9  12  1   
 14  12  13  1   
 15  12  14  1   
 16  12  17  1   
 17  14  15  1   
 18  14  16  1   
 19  14  17  1   
 20  17  18  1   
 21  17  19  1   
 22  20  21  1   
 23  20  22  ar  
 24  22  23  1   
@<TRIPOS>SUBSTRUCTURE
  1 ****   7 GROUP 4 **** **** 0

# MOE 2022.02 (io_trps.svl 2020.11)

@<TRIPOS>MOLECULE
LCSOL009
27 28 1 0 0 
SMALL
USER_CHARGES


@<TRIPOS>ATOM
  1 H       -0.7750     4.1650     0.6810 H     1 <1>   0.1500 
  2 C       -0.6770     3.1100     0.4480 C.ar  1 <1>   0.1600 
  3 N       -1.8260     2.3870     0.4730 N.ar  1 <1>  -0.6200 
  4 C       -1.7030     1.0670     0.1820 C.ar  1 <1>   0.1660 
  5 C       -2.9400     0.2260     0.2020 C.3   1 <1>   0.1440 
  6 H       -2.8570    -0.5510     0.9680 H     1 <1>   0.0000 
  7 H       -3.8210     0.8360     0.4270 H     1 <1>   0.0000 
  8 H       -3.0930    -0.2460    -0.7740 H     1 <1>   0.0000 
  9 C       -0.4650     0.5020    -0.1210 C.ar  1 <1>   0.1600 
 10 H       -0.3680    -0.5540    -0.3520 H     1 <1>   0.1500 
 11 N        0.6880     1.2130    -0.1500 N.ar  1 <1>  -0.6200 
 12 C        0.5480     2.5380     0.1450 C.ar  1 <1>   0.3960 
 13 C        1.7810     3.3740     0.1330 C.2   1 <1>   0.5440 
 14 O        1.7420     4.5710     0.3950 O.2   1 <1>  -0.5700 
 15 N        2.9310     2.6900    -0.1900 N.am  1 <1>  -0.7300 
 16 H        2.8390     1.6950    -0.3810 H     1 <1>   0.3700 
 17 C        4.2190     3.3300    -0.2430 C.3   1 <1>   0.3950 
 18 H        4.4940     3.6140     0.7790 H     1 <1>   0.0000 
 19 H        4.1360     4.2470    -0.8370 H     1 <1>   0.0000 
 20 C        5.2130     2.3980    -0.8550 C.3   1 <1>  -0.1950 
 21 H        5.0130     2.2320    -1.9080 H     1 <1>   0.1000 
 22 C        5.7850     1.2530    -0.0570 C.3   1 <1>  -0.2000 
 23 H        5.9560     0.3140    -0.5700 H     1 <1>   0.1000 
 24 H        5.4910     1.1450     0.9810 H     1 <1>   0.1000 
 25 C        6.6560     2.4240    -0.4210 C.3   1 <1>  -0.2000 
 26 H        6.9520     3.1010     0.3720 H     1 <1>   0.1000 
 27 H        7.4170     2.2730    -1.1800 H     1 <1>   0.1000 
@<TRIPOS>BOND
  1   1   2  1   
  2   2   3  ar  
  3   2  12  ar  
  4   3   4  ar  
  5   4   5  1   
  6   4   9  ar  
  7   5   6  1   
  8   5   7  1   
  9   5   8  1   
 10   9  10  1   
 11   9  11  ar  
 12  11  12  ar  
 13  12  13  1   
 14  13  14  2   
 15  13  15  am  
 16  15  16  1   
 17  15  17  1   
 18  17  18  1   
 19  17  19  1   
 20  17  20  1   
 21  20  21  1   
 22  20  22  1   
 23  20  25  1   
 24  22  23  1   
 25  22  24  1   
 26  22  25  1   
 27  25  26  1   
 28  25  27  1   
@<TRIPOS>SUBSTRUCTURE
  1 ****  12 GROUP 4 **** **** 0

# MOE 2022.02 (io_trps.svl 2020.11)

@<TRIPOS>MOLECULE
LCSOL010
32 33 1 0 0 
SMALL
USER_CHARGES


@<TRIPOS>ATOM
  1 H       -0.1370     0.6240    -2.2360 H     1 <1>   0.1500 
  2 C       -0.2430     0.1150    -1.2830 C.ar  1 <1>   0.1600 
  3 N       -1.4870    -0.3350    -1.0140 N.ar  1 <1>  -0.6200 
  4 C       -1.6390    -0.9710     0.1600 C.ar  1 <1>   0.7020 
  5 O       -2.8810    -1.4580     0.5080 O.3   1 <1>  -0.3400 
  6 C       -3.9310    -1.2580    -0.4630 C.3   1 <1>   0.2580 
  7 H       -3.7000    -1.7450    -1.4220 H     1 <1>   0.0000 
  8 C       -4.5150     0.1730    -0.6080 C.3   1 <1>   0.2100 
  9 H       -4.3190     0.8100     0.2600 H     1 <1>   0.0000 
 10 H       -4.2000     0.7090    -1.5080 H     1 <1>   0.0000 
 11 N       -5.8580    -0.4410    -0.7110 N.3   1 <1>  -0.6890 
 12 C       -6.9490     0.3050    -0.0540 C.3   1 <1>   0.2700 
 13 C       -7.2130     1.5710    -0.8990 C.3   1 <1>   0.0000 
 14 H       -6.3630     2.2620    -0.8680 H     1 <1>   0.0000 
 15 H       -8.0900     2.1160    -0.5300 H     1 <1>   0.0000 
 16 H       -7.4040     1.3200    -1.9490 H     1 <1>   0.0000 
 17 C       -6.7480     0.7380     1.4140 C.3   1 <1>   0.0000 
 18 H       -6.6070    -0.1130     2.0860 H     1 <1>   0.0000 
 19 H       -5.8990     1.4170     1.5370 H     1 <1>   0.0000 
 20 H       -7.6320     1.2780     1.7770 H     1 <1>   0.0000 
 21 C       -8.2170    -0.5740    -0.1290 C.3   1 <1>   0.0000 
 22 H       -9.0960    -0.0300     0.2380 H     1 <1>   0.0000 
 23 H       -8.4320    -0.8820    -1.1590 H     1 <1>   0.0000 
 24 H       -8.1170    -1.4810     0.4790 H     1 <1>   0.0000 
 25 C       -5.3580    -1.6200     0.0280 C.3   1 <1>   0.2100 
 26 H       -5.4550    -1.6090     1.1180 H     1 <1>   0.0000 
 27 H       -5.7390    -2.5770    -0.3420 H     1 <1>   0.0000 
 28 N       -0.6720    -1.1820     1.0660 N.ar  1 <1>  -0.6200 
 29 C        0.5510    -0.7100     0.7450 C.ar  1 <1>   0.1600 
 30 H        1.3200    -0.8910     1.4900 H     1 <1>   0.1500 
 31 C        0.8250    -0.0470    -0.4300 C.ar  1 <1>   0.1110 
 32 BR       2.5400     0.5940    -0.8400 Br    1 <1>  -0.1110 
@<TRIPOS>BOND
  1   1   2  1   
  2   2   3  ar  
  3   2  31  ar  
  4   3   4  ar  
  5   4   5  1   
  6   4  28  ar  
  7   5   6  1   
  8   6   7  1   
  9   6   8  1   
 10   6  25  1   
 11   8   9  1   
 12   8  10  1   
 13   8  11  1   
 14  11  12  1   
 15  11  25  1   
 16  12  13  1   
 17  12  17  1   
 18  12  21  1   
 19  13  14  1   
 20  13  15  1   
 21  13  16  1   
 22  17  18  1   
 23  17  19  1   
 24  17  20  1   
 25  21  22  1   
 26  21  23  1   
 27  21  24  1   
 28  25  26  1   
 29  25  27  1   
 30  28  29  ar  
 31  29  30  1   
 32  29  31  ar  
 33  31  32  1   
@<TRIPOS>SUBSTRUCTURE
  1 ****   6 GROUP 4 **** **** 0

# MOE 2022.02 (io_trps.svl 2020.11)

@<TRIPOS>MOLECULE
LCSOL011
21 22 1 0 0 
SMALL
USER_CHARGES


@<TRIPOS>ATOM
  1 H       -0.8570    -2.8790    -0.5040 H     1 <1>   0.4000 
  2 O       -0.1440    -2.2440    -0.3230 O.3   1 <1>  -0.6800 
  3 C        1.0350    -3.0170    -0.1060 C.3   1 <1>   0.4240 
  4 H        1.1450    -3.7140    -0.9440 H     1 <1>   0.0000 
  5 H        0.9100    -3.5890     0.8190 H     1 <1>   0.0000 
  6 C        2.2660    -2.1520     0.0030 C.ar  1 <1>   0.1660 
  7 N        3.4340    -2.7000    -0.4050 N.ar  1 <1>  -0.6200 
  8 C        4.5580    -1.9610    -0.2870 C.ar  1 <1>   0.5880 
  9 C        5.8630    -2.5590    -0.7520 C.3   1 <1>  -0.0680 
 10 H        6.0990    -2.3560    -1.7920 H     1 <1>   0.1000 
 11 C        6.3230    -3.8960    -0.2130 C.3   1 <1>  -0.2000 
 12 H        6.8200    -4.5700    -0.9010 H     1 <1>   0.1000 
 13 H        5.7050    -4.3920     0.5260 H     1 <1>   0.1000 
 14 C        7.0410    -2.6440     0.1940 C.3   1 <1>  -0.2000 
 15 H        6.9090    -2.2880     1.2100 H     1 <1>   0.1000 
 16 H        8.0270    -2.4610    -0.2150 H     1 <1>   0.1000 
 17 N        4.5690    -0.7100     0.2170 N.ar  1 <1>  -0.6200 
 18 C        3.3910    -0.2030     0.6220 C.ar  1 <1>   0.1600 
 19 H        3.4340     0.8040     1.0260 H     1 <1>   0.1500 
 20 C        2.2030    -0.8860     0.5440 C.ar  1 <1>  -0.1500 
 21 H        1.2730    -0.4470     0.8800 H     1 <1>   0.1500 
@<TRIPOS>BOND
  1   1   2  1   
  2   2   3  1   
  3   3   4  1   
  4   3   5  1   
  5   3   6  1   
  6   6   7  ar  
  7   6  20  ar  
  8   7   8  ar  
  9   8   9  1   
 10   8  17  ar  
 11   9  10  1   
 12   9  11  1   
 13   9  14  1   
 14  11  12  1   
 15  11  13  1   
 16  11  14  1   
 17  14  15  1   
 18  14  16  1   
 19  17  18  ar  
 20  18  19  1   
 21  18  20  ar  
 22  20  21  1   
@<TRIPOS>SUBSTRUCTURE
  1 ****   7 GROUP 4 **** **** 0

# MOE 2022.02 (io_trps.svl 2020.11)

@<TRIPOS>MOLECULE
LCSOL012
24 24 1 0 0 
SMALL
USER_CHARGES


@<TRIPOS>ATOM
  1 H        5.2610    -0.1100     1.6050 H     1 <1>   0.4000 
  2 O        4.3430    -0.4090     1.7100 O.3   1 <1>  -0.6800 
  3 C        3.8710    -0.7950     0.4180 C.3   1 <1>   0.4240 
  4 H        4.2540    -0.0550    -0.2960 H     1 <1>   0.0000 
  5 C        2.3610    -0.7140     0.4600 C.ar  1 <1>  -0.1440 
  6 C        1.6270    -1.3270     1.4810 C.ar  1 <1>  -0.1500 
  7 H        2.1270    -1.8580     2.2850 H     1 <1>   0.1500 
  8 C        0.2450    -1.2320     1.4630 C.ar  1 <1>   0.1600 
  9 H       -0.3560    -1.6900     2.2440 H     1 <1>   0.1500 
 10 N       -0.4530    -0.5820     0.5070 N.ar  1 <1>  -0.6200 
 11 C        0.2700     0.0070    -0.4680 C.ar  1 <1>   0.1600 
 12 H       -0.3120     0.5290    -1.2230 H     1 <1>   0.1500 
 13 C        1.6550    -0.0290    -0.5360 C.ar  1 <1>  -0.1500 
 14 H        2.1670     0.4680    -1.3530 H     1 <1>   0.1500 
 15 C        4.4030    -2.2030     0.0580 C.3   1 <1>   0.0000 
 16 H        4.0270    -2.9300     0.7910 H     1 <1>   0.0000 
 17 C        3.9500    -2.6500    -1.3360 C.3   1 <1>   0.0000 
 18 H        4.2690    -1.9360    -2.1020 H     1 <1>   0.0000 
 19 H        2.8620    -2.7480    -1.3910 H     1 <1>   0.0000 
 20 H        4.3750    -3.6270    -1.5880 H     1 <1>   0.0000 
 21 C        5.9350    -2.2550     0.1310 C.3   1 <1>   0.0000 
 22 H        6.3870    -1.5140    -0.5370 H     1 <1>   0.0000 
 23 H        6.3050    -3.2440    -0.1610 H     1 <1>   0.0000 
 24 H        6.2920    -2.0640     1.1470 H     1 <1>   0.0000 
@<TRIPOS>BOND
  1   1   2  1   
  2   2   3  1   
  3   3   4  1   
  4   3   5  1   
  5   3  15  1   
  6   5   6  ar  
  7   5  13  ar  
  8   6   7  1   
  9   6   8  ar  
 10   8   9  1   
 11   8  10  ar  
 12  10  11  ar  
 13  11  12  1   
 14  11  13  ar  
 15  13  14  1   
 16  15  16  1   
 17  15  17  1   
 18  15  21  1   
 19  17  18  1   
 20  17  19  1   
 21  17  20  1   
 22  21  22  1   
 23  21  23  1   
 24  21  24  1   
@<TRIPOS>SUBSTRUCTURE
  1 ****   5 GROUP 4 **** **** 0

# MOE 2022.02 (io_trps.svl 2020.11)

@<TRIPOS>MOLECULE
LCSOL013
28 29 1 0 0 
SMALL
USER_CHARGES


@<TRIPOS>ATOM
  1 H       -0.1390    -2.3730     1.4250 H     1 <1>   0.4000 
  2 O        0.2190    -1.9780     0.6110 O.3   1 <1>  -0.6800 
  3 C        1.6200    -1.8100     0.8080 C.3   1 <1>   0.2800 
  4 H        2.0410    -2.7990     1.0120 H     1 <1>   0.0000 
  5 H        1.7710    -1.1760     1.6880 H     1 <1>   0.0000 
  6 C        2.2670    -1.1850    -0.4490 C.3   1 <1>   0.2700 
  7 H        2.0340    -1.8360    -1.3010 H     1 <1>   0.0000 
  8 N        3.7240    -0.9520    -0.4140 N.3   1 <1>  -0.8100 
  9 C        4.5110    -1.9850     0.2570 C.3   1 <1>   0.4500 
 10 H        4.2130    -2.9710    -0.1240 H     1 <1>   0.0000 
 11 H        4.3200    -1.9890     1.3370 H     1 <1>   0.0000 
 12 C        5.9820    -1.8410    -0.0280 C.2   1 <1>  -0.1400 
 13 S        7.1100    -1.7540     1.2630 S.3   1 <1>  -0.0800 
 14 C        8.4340    -1.6210     0.1860 C.2   1 <1>  -0.1100 
 15 H        9.4420    -1.5310     0.5670 H     1 <1>   0.1500 
 16 C        8.0170    -1.6460    -1.1200 C.2   1 <1>   0.0570 
 17 BR       9.1590    -1.5220    -2.6150 Br    1 <1>  -0.0570 
 18 C        6.6140    -1.7760    -1.2570 C.2   1 <1>  -0.1500 
 19 H        6.0750    -1.8100    -2.1970 H     1 <1>   0.1500 
 20 C        3.9130     0.3880     0.1400 C.3   1 <1>   0.2700 
 21 H        4.9090     0.7960    -0.0600 H     1 <1>   0.0000 
 22 H        3.7310     0.4120     1.2210 H     1 <1>   0.0000 
 23 C        2.8500     1.1790    -0.5960 C.3   1 <1>   0.0000 
 24 H        3.2100     1.4710    -1.5910 H     1 <1>   0.0000 
 25 H        2.5670     2.0910    -0.0610 H     1 <1>   0.0000 
 26 C        1.6830     0.2100    -0.7350 C.3   1 <1>   0.0000 
 27 H        1.2670     0.2680    -1.7480 H     1 <1>   0.0000 
 28 H        0.8870     0.4820    -0.0330 H     1 <1>   0.0000 
@<TRIPOS>BOND
  1   1   2  1   
  2   2   3  1   
  3   3   4  1   
  4   3   5  1   
  5   3   6  1   
  6   6   7  1   
  7   6   8  1   
  8   6  26  1   
  9   8   9  1   
 10   8  20  1   
 11   9  10  1   
 12   9  11  1   
 13   9  12  1   
 14  12  13  1   
 15  12  18  2   
 16  13  14  1   
 17  14  15  1   
 18  14  16  2   
 19  16  17  1   
 20  16  18  1   
 21  18  19  1   
 22  20  21  1   
 23  20  22  1   
 24  20  23  1   
 25  23  24  1   
 26  23  25  1   
 27  23  26  1   
 28  26  27  1   
 29  26  28  1   
@<TRIPOS>SUBSTRUCTURE
  1 ****   9 GROUP 4 **** **** 0

# MOE 2022.02 (io_trps.svl 2020.11)

@<TRIPOS>MOLECULE
LCSOL014
17 18 1 0 0 
SMALL
USER_CHARGES


@<TRIPOS>ATOM
  1 H        0.0820    -0.8660    -0.4190 H     1 <1>   0.3700 
  2 N       -0.3490     0.0270    -0.2130 N.am  1 <1>  -0.7300 
  3 C        0.4190     1.0930     0.2320 C.2   1 <1>   0.5690 
  4 O        1.6270     1.0320     0.4010 O.2   1 <1>  -0.5700 
  5 C       -0.5120     2.2860     0.4530 C.3   1 <1>   0.8360 
  6 F       -0.2010     3.3550    -0.3290 F     1 <1>  -0.3400 
  7 F       -0.5220     2.7220     1.7420 F     1 <1>  -0.3400 
  8 C       -1.8830     1.7580     0.0790 C.3   1 <1>  -0.1900 
  9 C       -1.7450     0.3230    -0.3420 C.3   1 <1>   0.3950 
 10 H       -2.3020    -0.3590     0.3070 H     1 <1>   0.0000 
 11 H       -2.0350     0.1630    -1.3840 H     1 <1>   0.0000 
 12 C       -2.9080     2.6550    -0.5960 C.3   1 <1>  -0.2000 
 13 H       -2.6510     3.6950    -0.7700 H     1 <1>   0.1000 
 14 H       -3.5490     2.2320    -1.3620 H     1 <1>   0.1000 
 15 C       -3.1280     2.2180     0.8200 C.3   1 <1>  -0.2000 
 16 H       -3.9180     1.5010     1.0140 H     1 <1>   0.1000 
 17 H       -3.0180     2.9640     1.6020 H     1 <1>   0.1000 
@<TRIPOS>BOND
  1   1   2  1   
  2   2   3  am  
  3   2   9  1   
  4   3   4  2   
  5   3   5  1   
  6   5   6  1   
  7   5   7  1   
  8   5   8  1   
  9   8   9  1   
 10   8  12  1   
 11   8  15  1   
 12   9  10  1   
 13   9  11  1   
 14  12  13  1   
 15  12  14  1   
 16  12  15  1   
 17  15  16  1   
 18  15  17  1   
@<TRIPOS>SUBSTRUCTURE
  1 ****   5 GROUP 4 **** **** 0

# MOE 2022.02 (io_trps.svl 2020.11)

@<TRIPOS>MOLECULE
LCSOL015
24 25 1 0 0 
SMALL
USER_CHARGES


@<TRIPOS>ATOM
  1 H       -0.0520     3.8570     1.1210 H     1 <1>   0.4000 
  2 O        0.3430     3.2290     0.4920 O.3   1 <1>  -0.6800 
  3 C        1.5040     2.6890     1.1090 C.3   1 <1>   0.2800 
  4 H        2.1770     3.5160     1.3570 H     1 <1>   0.0000 
  5 H        1.2030     2.1950     2.0390 H     1 <1>   0.0000 
  6 C        2.1750     1.7160     0.1540 C.3   1 <1>   0.0000 
  7 H        2.4040     2.2400    -0.7850 H     1 <1>   0.0000 
  8 C        1.3290     0.5060    -0.1880 C.3   1 <1>   0.0000 
  9 H        0.8470     0.1050     0.7120 H     1 <1>   0.0000 
 10 H        0.5540     0.7070    -0.9330 H     1 <1>   0.0000 
 11 C        2.3770    -0.4610    -0.6850 C.3   1 <1>   0.2800 
 12 H        2.0700    -1.5060    -0.5840 H     1 <1>   0.0000 
 13 H        2.6310    -0.2710    -1.7330 H     1 <1>   0.0000 
 14 O        3.5510    -0.2250     0.1030 O.3   1 <1>  -0.5600 
 15 C        3.4350     1.0710     0.7270 C.3   1 <1>   0.3750 
 16 H        3.3330     0.8900     1.8040 H     1 <1>   0.0000 
 17 C        4.6660     1.9010     0.4860 C.3   1 <1>  -0.1950 
 18 H        4.5980     2.8610     0.9880 H     1 <1>   0.1000 
 19 C        6.0360     1.2740     0.4170 C.3   1 <1>  -0.2000 
 20 H        6.8640     1.8070     0.8690 H     1 <1>   0.1000 
 21 H        6.1180     0.1940     0.4820 H     1 <1>   0.1000 
 22 C        5.4140     1.8550    -0.8230 C.3   1 <1>  -0.2000 
 23 H        5.8190     2.7830    -1.2090 H     1 <1>   0.1000 
 24 H        5.0830     1.1640    -1.5900 H     1 <1>   0.1000 
@<TRIPOS>BOND
  1   1   2  1   
  2   2   3  1   
  3   3   4  1   
  4   3   5  1   
  5   3   6  1   
  6   6   7  1   
  7   6   8  1   
  8   6  15  1   
  9   8   9  1   
 10   8  10  1   
 11   8  11  1   
 12  11  12  1   
 13  11  13  1   
 14  11  14  1   
 15  14  15  1   
 16  15  16  1   
 17  15  17  1   
 18  17  18  1   
 19  17  19  1   
 20  17  22  1   
 21  19  20  1   
 22  19  21  1   
 23  19  22  1   
 24  22  23  1   
 25  22  24  1   
@<TRIPOS>SUBSTRUCTURE
  1 ****  15 GROUP 4 **** **** 0

# MOE 2022.02 (io_trps.svl 2020.11)

@<TRIPOS>MOLECULE
LCSOL016
25 26 1 0 0 
SMALL
USER_CHARGES


@<TRIPOS>ATOM
  1 H       -0.4100     0.0810    -0.2570 H     1 <1>   0.4000 
  2 O        0.3980    -0.3350     0.0920 O.3   1 <1>  -0.6800 
  3 C        0.3340    -1.7210    -0.2200 C.3   1 <1>   0.2800 
  4 H        0.1040    -1.8300    -1.2870 H     1 <1>   0.0000 
  5 C       -0.6720    -2.4580     0.6470 C.3   1 <1>   0.2800 
  6 H       -0.7290    -2.0360     1.6570 H     1 <1>   0.0000 
  7 H       -1.6780    -2.4310     0.2180 H     1 <1>   0.0000 
  8 O       -0.2310    -3.8190     0.7480 O.3   1 <1>  -0.5600 
  9 C        1.1240    -3.8780     0.2720 C.3   1 <1>   0.2800 
 10 H        1.7300    -4.4510     0.9800 H     1 <1>   0.0000 
 11 H        1.1290    -4.4150    -0.6830 H     1 <1>   0.0000 
 12 C        1.6250    -2.4470     0.1250 C.3   1 <1>   0.2800 
 13 H        2.0150    -2.0570     1.0750 H     1 <1>   0.0000 
 14 O        2.5670    -2.3200    -0.9460 O.3   1 <1>  -0.3630 
 15 C        3.8450    -2.5860    -0.5380 C.ar  1 <1>   0.0820 
 16 C        4.4700    -3.7270    -1.0380 C.ar  1 <1>  -0.1500 
 17 H        3.9350    -4.3910    -1.7110 H     1 <1>   0.1500 
 18 C        5.7850    -4.0130    -0.6700 C.ar  1 <1>  -0.1500 
 19 H        6.2680    -4.9080    -1.0540 H     1 <1>   0.1500 
 20 C        6.4690    -3.1430     0.1800 C.ar  1 <1>   0.1110 
 21 BR       8.2520    -3.5280     0.6770 Br    1 <1>  -0.1110 
 22 C        5.8530    -1.9850     0.6570 C.ar  1 <1>  -0.1500 
 23 H        6.3890    -1.2960     1.3040 H     1 <1>   0.1500 
 24 C        4.5370    -1.7000     0.2880 C.ar  1 <1>  -0.1500 
 25 H        4.0620    -0.7870     0.6350 H     1 <1>   0.1500 
@<TRIPOS>BOND
  1   1   2  1   
  2   2   3  1   
  3   3   4  1   
  4   3   5  1   
  5   3  12  1   
  6   5   6  1   
  7   5   7  1   
  8   5   8  1   
  9   8   9  1   
 10   9  10  1   
 11   9  11  1   
 12   9  12  1   
 13  12  13  1   
 14  12  14  1   
 15  14  15  1   
 16  15  16  ar  
 17  15  24  ar  
 18  16  17  1   
 19  16  18  ar  
 20  18  19  1   
 21  18  20  ar  
 22  20  21  1   
 23  20  22  ar  
 24  22  23  1   
 25  22  24  ar  
 26  24  25  1   
@<TRIPOS>SUBSTRUCTURE
  1 ****  15 GROUP 4 **** **** 0

# MOE 2022.02 (io_trps.svl 2020.11)

@<TRIPOS>MOLECULE
LCSOL017
17 18 1 0 0 
SMALL
USER_CHARGES


@<TRIPOS>ATOM
  1 H        1.5210     3.1530     1.7970 H     1 <1>   0.4000 
  2 O        2.3840     2.7310     1.6460 O.3   1 <1>  -0.5480 
  3 C        2.2570     1.7480     0.6000 C.3   1 <1>   0.2340 
  4 C        0.9020     1.3960     0.0610 C.2   1 <1>  -0.0860 
  5 C        0.3190     2.0510    -0.9970 C.2   1 <1>  -0.1100 
  6 H        0.7230     2.8580    -1.5930 H     1 <1>   0.1500 
  7 S       -1.2390     1.4210    -1.3290 S.3   1 <1>  -0.0800 
  8 C       -1.1240     0.2980    -0.0370 C.2   1 <1>  -0.1100 
  9 H       -1.9440    -0.3760     0.1670 H     1 <1>   0.1500 
 10 C        0.0750     0.3970     0.6360 C.2   1 <1>  -0.1500 
 11 H        0.3380    -0.2190     1.4870 H     1 <1>   0.1500 
 12 C        3.4300     1.7250    -0.3520 C.3   1 <1>  -0.2000 
 13 H        3.2650     1.4510    -1.3870 H     1 <1>   0.1000 
 14 H        4.2080     2.4660    -0.2120 H     1 <1>   0.1000 
 15 C        3.2920     0.6500     0.6800 C.3   1 <1>  -0.2000 
 16 H        3.0320    -0.3450     0.3380 H     1 <1>   0.1000 
 17 H        3.9750     0.6610     1.5210 H     1 <1>   0.1000 
@<TRIPOS>BOND
  1   1   2  1   
  2   2   3  1   
  3   3   4  1   
  4   3  12  1   
  5   3  15  1   
  6   4   5  2   
  7   4  10  1   
  8   5   6  1   
  9   5   7  1   
 10   7   8  1   
 11   8   9  1   
 12   8  10  2   
 13  10  11  1   
 14  12  13  1   
 15  12  14  1   
 16  12  15  1   
 17  15  16  1   
 18  15  17  1   
@<TRIPOS>SUBSTRUCTURE
  1 ****   4 GROUP 4 **** **** 0

# MOE 2022.02 (io_trps.svl 2020.11)

@<TRIPOS>MOLECULE
LCSOL018
30 30 1 0 0 
SMALL
USER_CHARGES


@<TRIPOS>ATOM
  1 H       -0.2370    -4.4170    -0.7330 H     1 <1>   0.4000 
  2 O       -0.8740    -3.8170    -0.3100 O.3   1 <1>  -0.6580 
  3 C       -0.3860    -2.4880    -0.6130 C.3   1 <1>   0.2580 
  4 C       -0.5920    -2.2260    -2.1050 C.3   1 <1>   0.0000 
  5 H       -1.6520    -2.3140    -2.3670 H     1 <1>   0.0000 
  6 H       -0.2610    -1.2250    -2.3990 H     1 <1>   0.0000 
  7 H       -0.0410    -2.9550    -2.7100 H     1 <1>   0.0000 
  8 C       -0.9960    -1.3620     0.2760 C.3   1 <1>   0.0000 
  9 H       -1.3700    -1.7160     1.2440 H     1 <1>   0.0000 
 10 H       -1.7660    -0.7360    -0.1850 H     1 <1>   0.0000 
 11 C        0.4090    -0.7270     0.3460 C.3   1 <1>   0.0000 
 12 H        0.6600    -0.2790     1.3110 H     1 <1>   0.0000 
 13 H        0.5880     0.0170    -0.4400 H     1 <1>   0.0000 
 14 C        0.9880    -2.1360     0.0880 C.3   1 <1>   0.2100 
 15 H        1.1720    -2.7370     0.9840 H     1 <1>   0.0000 
 16 N        2.0680    -2.0640    -0.9030 N.3   1 <1>  -0.8400 
 17 H        2.0460    -2.8200    -1.5870 H     1 <1>   0.3600 
 18 C        3.4240    -2.0220    -0.3110 C.3   1 <1>   0.2700 
 19 C        4.3820    -1.7290    -1.4840 C.3   1 <1>   0.0000 
 20 H        4.3230    -2.5040    -2.2570 H     1 <1>   0.0000 
 21 H        5.4240    -1.6870    -1.1430 H     1 <1>   0.0000 
 22 H        4.1510    -0.7670    -1.9570 H     1 <1>   0.0000 
 23 C        3.8070    -3.3850     0.2930 C.3   1 <1>   0.0000 
 24 H        3.1990    -3.6330     1.1680 H     1 <1>   0.0000 
 25 H        4.8550    -3.3870     0.6160 H     1 <1>   0.0000 
 26 H        3.6890    -4.1930    -0.4390 H     1 <1>   0.0000 
 27 C        3.5990    -0.9090     0.7340 C.3   1 <1>   0.0000 
 28 H        4.6460    -0.8310     1.0500 H     1 <1>   0.0000 
 29 H        3.3070     0.0670     0.3310 H     1 <1>   0.0000 
 30 H        3.0070    -1.0980     1.6360 H     1 <1>   0.0000 
@<TRIPOS>BOND
  1   1   2  1   
  2   2   3  1   
  3   3   4  1   
  4   3   8  1   
  5   3  14  1   
  6   4   5  1   
  7   4   6  1   
  8   4   7  1   
  9   8   9  1   
 10   8  10  1   
 11   8  11  1   
 12  11  12  1   
 13  11  13  1   
 14  11  14  1   
 15  14  15  1   
 16  14  16  1   
 17  16  17  1   
 18  16  18  1   
 19  18  19  1   
 20  18  23  1   
 21  18  27  1   
 22  19  20  1   
 23  19  21  1   
 24  19  22  1   
 25  23  24  1   
 26  23  25  1   
 27  23  26  1   
 28  27  28  1   
 29  27  29  1   
 30  27  30  1   
@<TRIPOS>SUBSTRUCTURE
  1 ****  14 GROUP 4 **** **** 0

# MOE 2022.02 (io_trps.svl 2020.11)

@<TRIPOS>MOLECULE
LCSOL019
30 31 1 0 0 
SMALL
USER_CHARGES


@<TRIPOS>ATOM
  1 H       -5.0050    -0.7590    -0.5350 H     1 <1>   0.1500 
  2 C       -4.4440     0.1220    -0.2410 C.ar  1 <1>  -0.1500 
  3 C       -3.0500     0.0060    -0.1500 C.ar  1 <1>  -0.1500 
  4 H       -2.6180    -0.9620    -0.3810 H     1 <1>   0.1500 
  5 C       -2.2540     1.0950     0.2220 C.ar  1 <1>   0.1170 
  6 N       -0.8460     1.0050     0.3180 N.am  1 <1>  -0.5470 
  7 H       -0.3570     1.8440     0.5920 H     1 <1>   0.3700 
  8 C       -0.0490    -0.0930     0.0810 C.2   1 <1>   0.6300 
  9 O       -0.3850    -1.2220    -0.2380 O.2   1 <1>  -0.5700 
 10 C        1.4000     0.1930     0.2900 C.3   1 <1>  -0.1000 
 11 H        1.7400    -0.0400     1.2950 H     1 <1>   0.1000 
 12 C        2.0950     1.3190    -0.4410 C.3   1 <1>  -0.2000 
 13 H        2.8660     1.8690     0.0870 H     1 <1>   0.1000 
 14 H        1.5330     1.9140    -1.1540 H     1 <1>   0.1000 
 15 C        2.3840    -0.1030    -0.8180 C.3   1 <1>  -0.2000 
 16 H        3.3430    -0.5250    -0.5400 H     1 <1>   0.1000 
 17 H        1.9950    -0.4750    -1.7600 H     1 <1>   0.1000 
 18 C       -2.8790     2.3260     0.5090 C.ar  1 <1>  -0.1440 
 19 C       -2.1080     3.5510     0.9160 C.3   1 <1>   0.1440 
 20 H       -1.5530     3.3620     1.8410 H     1 <1>   0.0000 
 21 H       -1.4120     3.8440     0.1230 H     1 <1>   0.0000 
 22 H       -2.7700     4.4040     1.1020 H     1 <1>   0.0000 
 23 C       -4.2810     2.4240     0.4110 C.ar  1 <1>  -0.1500 
 24 H       -4.7770     3.3680     0.6280 H     1 <1>   0.1500 
 25 C       -5.0660     1.3320     0.0380 C.ar  1 <1>   0.0820 
 26 O       -6.4090     1.5820    -0.0150 O.3   1 <1>  -0.3630 
 27 C       -7.2470     0.4970    -0.3930 C.3   1 <1>   0.2800 
 28 H       -7.0140     0.1510    -1.4060 H     1 <1>   0.0000 
 29 H       -8.2800     0.8570    -0.3940 H     1 <1>   0.0000 
 30 H       -7.1810    -0.3230     0.3300 H     1 <1>   0.0000 
@<TRIPOS>BOND
  1   1   2  1   
  2   2   3  ar  
  3   2  25  ar  
  4   3   4  1   
  5   3   5  ar  
  6   5   6  1   
  7   5  18  ar  
  8   6   7  1   
  9   6   8  am  
 10   8   9  2   
 11   8  10  1   
 12  10  11  1   
 13  10  12  1   
 14  10  15  1   
 15  12  13  1   
 16  12  14  1   
 17  12  15  1   
 18  15  16  1   
 19  15  17  1   
 20  18  19  1   
 21  18  23  ar  
 22  19  20  1   
 23  19  21  1   
 24  19  22  1   
 25  23  24  1   
 26  23  25  ar  
 27  25  26  1   
 28  26  27  1   
 29  27  28  1   
 30  27  29  1   
 31  27  30  1   
@<TRIPOS>SUBSTRUCTURE
  1 ****   5 GROUP 4 **** **** 0

# MOE 2022.02 (io_trps.svl 2020.11)

@<TRIPOS>MOLECULE
LCSOL020
19 20 1 0 0 
SMALL
USER_CHARGES


@<TRIPOS>ATOM
  1 H        1.7840     4.2070     0.5830 H     1 <1>   0.1500 
  2 C        1.2320     3.3060     0.3550 C.2   1 <1>  -0.1360 
  3 C        1.7570     2.0870     0.3820 C.2   1 <1>   0.2490 
  4 CL       3.3840     1.7660     0.7850 Cl    1 <1>  -0.1400 
  5 N        1.0360     0.9850     0.0800 N.am  1 <1>  -0.5390 
  6 H        1.4800     0.0760     0.1000 H     1 <1>   0.3700 
  7 C       -0.2880     1.0110    -0.2630 C.2   1 <1>   0.6900 
  8 O       -0.8560    -0.0420    -0.5450 O.2   1 <1>  -0.5700 
  9 N       -0.8880     2.2700    -0.2730 N.am  1 <1>  -0.2690 
 10 C       -2.2980     2.3620    -0.6030 C.3   1 <1>   0.0490 
 11 H       -2.4520     2.4770    -1.6730 H     1 <1>   0.1000 
 12 C       -3.2870     3.0650     0.2980 C.3   1 <1>  -0.2000 
 13 H       -4.0560     3.6640    -0.1760 H     1 <1>   0.1000 
 14 H       -2.9380     3.4660     1.2420 H     1 <1>   0.1000 
 15 C       -3.3510     1.5780     0.1460 C.3   1 <1>  -0.2000 
 16 H       -3.0440     0.9670     0.9880 H     1 <1>   0.1000 
 17 H       -4.1640     1.1540    -0.4320 H     1 <1>   0.1000 
 18 C       -0.1870     3.4440    -0.0200 C.2   1 <1>   0.6160 
 19 O       -0.6550     4.5790    -0.0950 O.2   1 <1>  -0.5700 
@<TRIPOS>BOND
  1   1   2  1   
  2   2   3  2   
  3   2  18  1   
  4   3   4  1   
  5   3   5  1   
  6   5   6  1   
  7   5   7  am  
  8   7   8  2   
  9   7   9  am  
 10   9  10  1   
 11   9  18  am  
 12  10  11  1   
 13  10  12  1   
 14  10  15  1   
 15  12  13  1   
 16  12  14  1   
 17  12  15  1   
 18  15  16  1   
 19  15  17  1   
 20  18  19  2   
@<TRIPOS>SUBSTRUCTURE
  1 ****   9 GROUP 4 **** **** 0

# MOE 2022.02 (io_trps.svl 2020.11)

@<TRIPOS>MOLECULE
LCSOL021
30 31 1 0 0 
SMALL
USER_CHARGES


@<TRIPOS>ATOM
  1 H        1.6880     6.1590     1.3550 H     1 <1>   0.5000 
  2 O        1.3230     5.6280     0.6150 O.3   1 <1>  -0.6500 
  3 C        1.0820     4.4130     1.1540 C.2   1 <1>   0.6590 
  4 O        1.3580     4.1970     2.3240 O.2   1 <1>  -0.5700 
  5 C        0.4460     3.4510     0.1690 C.3   1 <1>   0.2910 
  6 H        0.7720     3.7390    -0.8380 H     1 <1>   0.0000 
  7 S       -1.3590     3.6470     0.2350 S.3   1 <1>  -0.4600 
  8 C       -1.6950     2.4500    -1.0660 C.3   1 <1>   0.2910 
  9 H       -1.2460     2.7780    -2.0090 H     1 <1>   0.0000 
 10 H       -2.7800     2.3990    -1.2060 H     1 <1>   0.0000 
 11 C       -1.1890     1.0580    -0.7410 C.2   1 <1>   0.5690 
 12 O       -1.8080     0.0880    -1.1890 O.2   1 <1>  -0.5700 
 13 N       -0.0170     0.9030    -0.0100 N.am  1 <1>  -0.6600 
 14 C        0.3830    -0.4590     0.3390 C.3   1 <1>   0.3000 
 15 H       -0.4320    -1.1750     0.2030 H     1 <1>   0.0000 
 16 H        0.6890    -0.4880     1.3890 H     1 <1>   0.0000 
 17 H        1.2180    -0.7650    -0.2980 H     1 <1>   0.0000 
 18 C        0.8690     1.9990     0.4820 C.3   1 <1>   0.4440 
 19 H        0.8570     1.8590     1.5720 H     1 <1>   0.0000 
 20 C        2.3070     1.7920    -0.0010 C.ar  1 <1>  -0.1440 
 21 C        3.3640     1.7780     0.9240 C.ar  1 <1>  -0.1500 
 22 H        3.1710     1.9040     1.9880 H     1 <1>   0.1500 
 23 C        4.6800     1.6090     0.4930 C.ar  1 <1>  -0.1500 
 24 H        5.4910     1.6000     1.2170 H     1 <1>   0.1500 
 25 C        4.9570     1.4520    -0.8640 C.ar  1 <1>  -0.1500 
 26 H        5.9830     1.3190    -1.1970 H     1 <1>   0.1500 
 27 C        3.9190     1.4650    -1.7920 C.ar  1 <1>  -0.1500 
 28 H        4.1360     1.3390    -2.8500 H     1 <1>   0.1500 
 29 C        2.6010     1.6350    -1.3660 C.ar  1 <1>  -0.1500 
 30 H        1.8040     1.6320    -2.1070 H     1 <1>   0.1500 
@<TRIPOS>BOND
  1   1   2  1   
  2   2   3  1   
  3   3   4  2   
  4   3   5  1   
  5   5   6  1   
  6   5   7  1   
  7   5  18  1   
  8   7   8  1   
  9   8   9  1   
 10   8  10  1   
 11   8  11  1   
 12  11  12  2   
 13  11  13  am  
 14  13  14  1   
 15  13  18  1   
 16  14  15  1   
 17  14  16  1   
 18  14  17  1   
 19  18  19  1   
 20  18  20  1   
 21  20  21  ar  
 22  20  29  ar  
 23  21  22  1   
 24  21  23  ar  
 25  23  24  1   
 26  23  25  ar  
 27  25  26  1   
 28  25  27  ar  
 29  27  28  1   
 30  27  29  ar  
 31  29  30  1   
@<TRIPOS>SUBSTRUCTURE
  1 ****  18 GROUP 4 **** **** 0

# MOE 2022.02 (io_trps.svl 2020.11)

@<TRIPOS>MOLECULE
LCSOL022
20 21 1 0 0 
SMALL
USER_CHARGES


@<TRIPOS>ATOM
  1 H        0.7620     0.2570    -0.5100 H     1 <1>   0.2700 
  2 N       -0.0490    -0.3240    -0.3140 N.pl3 1 <1>   0.3000 
  3 N       -1.2580     0.2680    -0.2520 N.2   1 <1>  -0.7070 
  4 C       -2.0820    -0.7430     0.0220 C.2   1 <1>   0.1080 
  5 C       -1.4120    -1.9780     0.1270 C.2   1 <1>  -0.1810 
  6 C       -0.0880    -1.6740    -0.0990 C.2   1 <1>  -0.3320 
  7 C        1.1370    -2.4840    -0.1380 C.3   1 <1>   1.2000 
  8 F        2.2140    -1.7480    -0.5120 F     1 <1>  -0.3400 
  9 F        1.0310    -3.5090    -1.0170 F     1 <1>  -0.3400 
 10 F        1.4240    -3.0220     1.0710 F     1 <1>  -0.3400 
 11 C       -2.1350    -3.2440     0.4020 C.3   1 <1>   0.4610 
 12 H       -2.1940    -3.8560    -0.5050 H     1 <1>   0.0000 
 13 H       -1.6190    -3.8250     1.1720 H     1 <1>   0.0000 
 14 O       -3.4790    -3.0010     0.8730 O.3   1 <1>  -0.5600 
 15 C       -4.1770    -2.0200     0.0780 C.3   1 <1>   0.2800 
 16 H       -5.2160    -1.9920     0.4220 H     1 <1>   0.0000 
 17 H       -4.1830    -2.3510    -0.9680 H     1 <1>   0.0000 
 18 C       -3.5470    -0.6230     0.2220 C.3   1 <1>   0.1810 
 19 H       -3.7290    -0.2430     1.2340 H     1 <1>   0.0000 
 20 H       -3.9960     0.0720    -0.4940 H     1 <1>   0.0000 
@<TRIPOS>BOND
  1   1   2  1   
  2   2   3  1   
  3   2   6  1   
  4   3   4  2   
  5   4   5  1   
  6   4  18  1   
  7   5   6  2   
  8   5  11  1   
  9   6   7  1   
 10   7   8  1   
 11   7   9  1   
 12   7  10  1   
 13  11  12  1   
 14  11  13  1   
 15  11  14  1   
 16  14  15  1   
 17  15  16  1   
 18  15  17  1   
 19  15  18  1   
 20  18  19  1   
 21  18  20  1   
@<TRIPOS>SUBSTRUCTURE
  1 ****   5 GROUP 4 **** **** 0

# MOE 2022.02 (io_trps.svl 2020.11)

@<TRIPOS>MOLECULE
LCSOL023
31 32 1 0 0 
SMALL
USER_CHARGES


@<TRIPOS>ATOM
  1 H        2.6330     0.3810    -1.3450 H     1 <1>   0.1500 
  2 C        2.7430     1.1620    -0.6070 C.2   1 <1>  -0.1360 
  3 C        3.9370     1.6390    -0.2090 C.2   1 <1>   0.2480 
  4 O        5.0530     1.0650    -0.8090 O.3   1 <1>  -0.3570 
  5 C        6.2940     1.6060    -0.3730 C.3   1 <1>   0.2800 
  6 H        7.0940     1.0880    -0.9110 H     1 <1>   0.0000 
  7 H        6.4450     1.4340     0.6980 H     1 <1>   0.0000 
  8 H        6.3660     2.6730    -0.6130 H     1 <1>   0.0000 
  9 N        4.1080     2.6410     0.7350 N.2   1 <1>  -0.6210 
 10 C        3.0240     3.1280     1.2470 C.2   1 <1>   0.4400 
 11 H        3.0630     3.9270     2.0050 H     1 <1>   0.0600 
 12 N        1.7610     2.7330     0.9280 N.pl3 1 <1>  -0.5000 
 13 H        0.9780     3.1780     1.3810 H     1 <1>   0.4000 
 14 C        1.5230     1.7480     0.0070 C.2   1 <1>   0.4860 
 15 N        0.3860     1.2810    -0.3860 N.2   1 <1>  -0.6960 
 16 C       -0.8590     1.8060     0.1810 C.3   1 <1>   0.2460 
 17 H       -0.7550     1.9820     1.2600 H     1 <1>   0.0000 
 18 C       -1.9500     0.7510    -0.0020 C.3   1 <1>   0.0000 
 19 H       -2.0520     0.5060    -1.0680 H     1 <1>   0.0000 
 20 H       -1.6720    -0.1820     0.5020 H     1 <1>   0.0000 
 21 C       -3.2890     1.2560     0.5420 C.3   1 <1>   0.2700 
 22 H       -4.1000     0.7130     0.0430 H     1 <1>   0.0000 
 23 H       -3.3620     1.0200     1.6100 H     1 <1>   0.0000 
 24 N       -3.4930     2.7010     0.3890 N.3   1 <1>  -0.9000 
 25 H       -4.4900     2.8910     0.2880 H     1 <1>   0.3600 
 26 C       -2.7610     3.2340    -0.7530 C.3   1 <1>   0.2700 
 27 H       -3.0590     2.7180    -1.6740 H     1 <1>   0.0000 
 28 H       -3.0170     4.2900    -0.8910 H     1 <1>   0.0000 
 29 C       -1.2530     3.1130    -0.5260 C.3   1 <1>   0.0000 
 30 H       -0.7450     3.2080    -1.4950 H     1 <1>   0.0000 
 31 H       -0.9050     3.9570     0.0830 H     1 <1>   0.0000 
@<TRIPOS>BOND
  1   1   2  1   
  2   2   3  2   
  3   2  14  1   
  4   3   4  1   
  5   3   9  1   
  6   4   5  1   
  7   5   6  1   
  8   5   7  1   
  9   5   8  1   
 10   9  10  2   
 11  10  11  1   
 12  10  12  1   
 13  12  13  1   
 14  12  14  1   
 15  14  15  2   
 16  15  16  1   
 17  16  17  1   
 18  16  18  1   
 19  16  29  1   
 20  18  19  1   
 21  18  20  1   
 22  18  21  1   
 23  21  22  1   
 24  21  23  1   
 25  21  24  1   
 26  24  25  1   
 27  24  26  1   
 28  26  27  1   
 29  26  28  1   
 30  26  29  1   
 31  29  30  1   
 32  29  31  1   
@<TRIPOS>SUBSTRUCTURE
  1 ****  14 GROUP 4 **** **** 0

# MOE 2022.02 (io_trps.svl 2020.11)

@<TRIPOS>MOLECULE
LCSOL024
21 22 1 0 0 
SMALL
USER_CHARGES


@<TRIPOS>ATOM
  1 H       -2.3250     4.8760     0.4820 H     1 <1>   0.1500 
  2 C       -1.6360     4.1230     0.1220 C.2   1 <1>   0.0770 
  3 N       -1.8540     3.4670    -1.0620 N.2   1 <1>  -0.5650 
  4 C       -0.8450     2.6340    -1.1890 C.2   1 <1>   0.0370 
  5 H       -0.6970     1.9480    -2.0130 H     1 <1>   0.1500 
  6 N        0.0220     2.7400    -0.1390 N.pl3 1 <1>   0.0480 
  7 C        1.2430     1.9750     0.0330 C.3   1 <1>   0.4370 
  8 H        1.3090     1.7010     1.0910 H     1 <1>   0.0000 
  9 H        1.1510     1.0530    -0.5510 H     1 <1>   0.0000 
 10 C        2.4470     2.7360    -0.3910 C.2   1 <1>   0.0460 
 11 N        3.6810     2.4550     0.1630 N.2   1 <1>  -0.5650 
 12 C        4.5030     3.2880    -0.4420 C.2   1 <1>   0.2980 
 13 C        5.9570     3.4600    -0.2580 C.3   1 <1>   0.1800 
 14 H        6.3400     2.7450     0.4760 H     1 <1>   0.0000 
 15 H        6.4850     3.2960    -1.2020 H     1 <1>   0.0000 
 16 H        6.1820     4.4700     0.0960 H     1 <1>   0.0000 
 17 O        3.9060     4.1000    -1.3650 O.3   1 <1>  -0.2800 
 18 C        2.5950     3.7370    -1.3260 C.2   1 <1>  -0.0100 
 19 H        1.9300     4.2680    -1.9940 H     1 <1>   0.1500 
 20 C       -0.4770     3.6840     0.7170 C.2   1 <1>  -0.3020 
 21 H        0.0170     3.9610     1.6390 H     1 <1>   0.1500 
@<TRIPOS>BOND
  1   1   2  1   
  2   2   3  1   
  3   2  20  2   
  4   3   4  2   
  5   4   5  1   
  6   4   6  1   
  7   6   7  1   
  8   6  20  1   
  9   7   8  1   
 10   7   9  1   
 11   7  10  1   
 12  10  11  1   
 13  10  18  2   
 14  11  12  2   
 15  12  13  1   
 16  12  17  1   
 17  13  14  1   
 18  13  15  1   
 19  13  16  1   
 20  17  18  1   
 21  18  19  1   
 22  20  21  1   
@<TRIPOS>SUBSTRUCTURE
  1 ****  10 GROUP 4 **** **** 0

# MOE 2022.02 (io_trps.svl 2020.11)

@<TRIPOS>MOLECULE
LCSOL025
22 23 1 0 0 
SMALL
USER_CHARGES


@<TRIPOS>ATOM
  1 H       -2.0360     1.3470    -0.3350 H     1 <1>   0.1500 
  2 C       -1.0590     1.8160    -0.2470 C.ar  1 <1>  -0.1500 
  3 C       -0.9710     3.2100    -0.0880 C.ar  1 <1>  -0.1500 
  4 H       -1.8840     3.8000    -0.0570 H     1 <1>   0.1500 
  5 C        0.2760     3.8280     0.0330 C.ar  1 <1>   0.1110 
  6 BR       0.3810     5.7000     0.2530 Br    1 <1>  -0.1110 
  7 C        1.4100     3.0380    -0.0170 C.ar  1 <1>   0.0820 
  8 C        1.3220     1.6610    -0.1710 C.ar  1 <1>  -0.1440 
  9 C        0.0950     1.0290    -0.2830 C.ar  1 <1>  -0.1500 
 10 H        0.0260    -0.0490    -0.3870 H     1 <1>   0.1500 
 11 C        2.6790     1.0680    -0.1170 C.3   1 <1>   0.1440 
 12 H        2.8660     0.3400    -0.9110 H     1 <1>   0.0000 
 13 H        2.8440     0.6060     0.8620 H     1 <1>   0.0000 
 14 C        3.5090     2.3460    -0.3100 C.3   1 <1>   0.2800 
 15 H        3.7400     2.4870    -1.3760 H     1 <1>   0.0000 
 16 C        4.8130     2.3470     0.4990 C.3   1 <1>   0.2700 
 17 H        4.5830     2.2610     1.5670 H     1 <1>   0.0000 
 18 H        5.3170     3.3130     0.3780 H     1 <1>   0.0000 
 19 N        5.7280     1.2710     0.1140 N.3   1 <1>  -0.9900 
 20 H        6.0580     1.4300    -0.8380 H     1 <1>   0.3600 
 21 H        6.5590     1.3170     0.7050 H     1 <1>   0.3600 
 22 O        2.7030     3.4860     0.0950 O.3   1 <1>  -0.3630 
@<TRIPOS>BOND
  1   1   2  1   
  2   2   3  ar  
  3   2   9  ar  
  4   3   4  1   
  5   3   5  ar  
  6   5   6  1   
  7   5   7  ar  
  8   7   8  ar  
  9   7  22  1   
 10   8   9  ar  
 11   8  11  1   
 12   9  10  1   
 13  11  12  1   
 14  11  13  1   
 15  11  14  1   
 16  14  15  1   
 17  14  16  1   
 18  14  22  1   
 19  16  17  1   
 20  16  18  1   
 21  16  19  1   
 22  19  20  1   
 23  19  21  1   
@<TRIPOS>SUBSTRUCTURE
  1 ****   7 GROUP 4 **** **** 0

# MOE 2022.02 (io_trps.svl 2020.11)

@<TRIPOS>MOLECULE
LCSOL026
35 36 1 0 0 
SMALL
USER_CHARGES


@<TRIPOS>ATOM
  1 H        5.9080    -7.3930    -2.8320 H     1 <1>   0.1500 
  2 C        5.0250    -7.1400    -2.2620 C.2   1 <1>  -0.0100 
  3 O        4.1210    -6.3530    -2.9020 O.3   1 <1>  -0.2800 
  4 C        3.0940    -6.1480    -2.0330 C.2   1 <1>  -0.0100 
  5 H        2.2870    -5.5300    -2.4010 H     1 <1>   0.1500 
  6 C        3.3370    -6.8000    -0.8470 C.2   1 <1>  -0.0010 
  7 C        2.4320    -6.7750     0.2640 C.2   1 <1>   0.1410 
  8 O        1.2280    -6.1440     0.2370 O.3   1 <1>  -0.2800 
  9 C        0.6470    -6.3410     1.4600 C.2   1 <1>  -0.0400 
 10 C       -0.6970    -5.7480     1.6640 C.3   1 <1>   0.4800 
 11 H       -0.6400    -4.6550     1.6730 H     1 <1>   0.0000 
 12 H       -1.1370    -6.0820     2.6100 H     1 <1>   0.0000 
 13 N       -1.5510    -6.1430     0.5690 N.am  1 <1>  -0.7300 
 14 H       -1.1030    -6.4980    -0.2660 H     1 <1>   0.3700 
 15 C       -2.9170    -6.0240     0.6430 C.2   1 <1>   0.5690 
 16 O       -3.4750    -5.5780     1.6420 O.2   1 <1>  -0.5700 
 17 C       -3.6850    -6.4840    -0.6120 C.3   1 <1>   0.0610 
 18 C       -3.4010    -7.9680    -0.8870 C.3   1 <1>   0.0000 
 19 H       -4.0050    -8.3380    -1.7230 H     1 <1>   0.0000 
 20 H       -3.6290    -8.5800    -0.0070 H     1 <1>   0.0000 
 21 H       -2.3490    -8.1430    -1.1400 H     1 <1>   0.0000 
 22 C       -3.2650    -5.6340    -1.8200 C.3   1 <1>   0.0000 
 23 H       -2.2120    -5.7860    -2.0820 H     1 <1>   0.0000 
 24 H       -3.3970    -4.5650    -1.6130 H     1 <1>   0.0000 
 25 H       -3.8610    -5.8820    -2.7050 H     1 <1>   0.0000 
 26 C       -5.1950    -6.3040    -0.3810 C.3   1 <1>   0.0000 
 27 H       -5.4450    -5.2560    -0.1800 H     1 <1>   0.0000 
 28 H       -5.7720    -6.6220    -1.2570 H     1 <1>   0.0000 
 29 H       -5.5390    -6.8940     0.4760 H     1 <1>   0.0000 
 30 C        1.4830    -7.0930     2.2600 C.2   1 <1>  -0.1500 
 31 H        1.2810    -7.4040     3.2760 H     1 <1>   0.1500 
 32 C        2.6380    -7.3740     1.4860 C.2   1 <1>  -0.1500 
 33 H        3.5030    -7.9440     1.7940 H     1 <1>   0.1500 
 34 C        4.5900    -7.4430    -0.9910 C.2   1 <1>  -0.1500 
 35 H        5.1180    -8.0510    -0.2720 H     1 <1>   0.1500 
@<TRIPOS>BOND
  1   1   2  1   
  2   2   3  1   
  3   2  34  2   
  4   3   4  1   
  5   4   5  1   
  6   4   6  2   
  7   6   7  1   
  8   6  34  1   
  9   7   8  1   
 10   7  32  2   
 11   8   9  1   
 12   9  10  1   
 13   9  30  2   
 14  10  11  1   
 15  10  12  1   
 16  10  13  1   
 17  13  14  1   
 18  13  15  am  
 19  15  16  2   
 20  15  17  1   
 21  17  18  1   
 22  17  22  1   
 23  17  26  1   
 24  18  19  1   
 25  18  20  1   
 26  18  21  1   
 27  22  23  1   
 28  22  24  1   
 29  22  25  1   
 30  26  27  1   
 31  26  28  1   
 32  26  29  1   
 33  30  31  1   
 34  30  32  1   
 35  32  33  1   
 36  34  35  1   
@<TRIPOS>SUBSTRUCTURE
  1 ****   8 GROUP 4 **** **** 0

# MOE 2022.02 (io_trps.svl 2020.11)

@<TRIPOS>MOLECULE
LCSOL027
32 33 1 0 0 
SMALL
USER_CHARGES


@<TRIPOS>ATOM
  1 H       10.1320     3.3740    -0.5260 H     1 <1>   0.4000 
  2 O       10.1350     2.4040    -0.4450 O.3   1 <1>  -0.6800 
  3 C        8.9280     2.0240     0.1920 C.3   1 <1>   0.2800 
  4 H        8.9110     2.4290     1.2110 H     1 <1>   0.0000 
  5 C        7.6780     2.4430    -0.5810 C.3   1 <1>   0.3000 
  6 H        7.3270     3.4390    -0.2920 H     1 <1>   0.0000 
  7 H        7.8450     2.4440    -1.6650 H     1 <1>   0.0000 
  8 N        6.6880     1.4290    -0.2640 N.am  1 <1>  -0.6600 
  9 C        5.3690     1.6260    -0.5820 C.2   1 <1>   0.6900 
 10 O        4.9780     2.6350    -1.1620 O.2   1 <1>  -0.5700 
 11 N        4.5220     0.6260    -0.1930 N.am  1 <1>  -0.7300 
 12 H        4.8930    -0.1660     0.3030 H     1 <1>   0.3700 
 13 C        3.1020     0.6850    -0.4590 C.3   1 <1>   0.3000 
 14 H        2.9440     1.1010    -1.4620 H     1 <1>   0.0000 
 15 C        2.3470     1.5190     0.5700 C.3   1 <1>   0.0000 
 16 H        2.6670     1.2690     1.5900 H     1 <1>   0.0000 
 17 H        2.4920     2.5940     0.4290 H     1 <1>   0.0000 
 18 C        0.9000     1.1010     0.3560 C.3   1 <1>   0.0000 
 19 H        0.4620     1.6790    -0.4670 H     1 <1>   0.0000 
 20 H        0.2850     1.2710     1.2450 H     1 <1>   0.0000 
 21 C        0.9600    -0.3760    -0.0310 C.3   1 <1>   0.0000 
 22 H        0.3130    -0.5720    -0.8930 H     1 <1>   0.0000 
 23 H        0.6120    -1.0120     0.7900 H     1 <1>   0.0000 
 24 C        2.4220    -0.6780    -0.3550 C.3   1 <1>   0.0000 
 25 H        2.5280    -1.2580    -1.2780 H     1 <1>   0.0000 
 26 H        2.8590    -1.2770     0.4540 H     1 <1>   0.0000 
 27 C        7.3050     0.2870     0.3920 C.3   1 <1>   0.3000 
 28 H        7.0110     0.3050     1.4470 H     1 <1>   0.0000 
 29 H        6.9700    -0.6520    -0.0580 H     1 <1>   0.0000 
 30 C        8.8000     0.5050     0.2250 C.3   1 <1>   0.0000 
 31 H        9.1520     0.0730    -0.7200 H     1 <1>   0.0000 
 32 H        9.3870     0.0480     1.0280 H     1 <1>   0.0000 
@<TRIPOS>BOND
  1   1   2  1   
  2   2   3  1   
  3   3   4  1   
  4   3   5  1   
  5   3  30  1   
  6   5   6  1   
  7   5   7  1   
  8   5   8  1   
  9   8   9  am  
 10   8  27  1   
 11   9  10  2   
 12   9  11  am  
 13  11  12  1   
 14  11  13  1   
 15  13  14  1   
 16  13  15  1   
 17  13  24  1   
 18  15  16  1   
 19  15  17  1   
 20  15  18  1   
 21  18  19  1   
 22  18  20  1   
 23  18  21  1   
 24  21  22  1   
 25  21  23  1   
 26  21  24  1   
 27  24  25  1   
 28  24  26  1   
 29  27  28  1   
 30  27  29  1   
 31  27  30  1   
 32  30  31  1   
 33  30  32  1   
@<TRIPOS>SUBSTRUCTURE
  1 ****   9 GROUP 4 **** **** 0

# MOE 2022.02 (io_trps.svl 2020.11)

@<TRIPOS>MOLECULE
LCSOL028
27 28 1 0 0 
SMALL
USER_CHARGES


@<TRIPOS>ATOM
  1 H       -2.5350     5.3210     0.5040 H     1 <1>   0.1500 
  2 C       -1.5980     4.7690     0.4730 C.ar  1 <1>  -0.1500 
  3 C       -1.6150     3.3690     0.5800 C.ar  1 <1>  -0.1500 
  4 H       -2.5650     2.8520     0.6930 H     1 <1>   0.1500 
  5 C       -0.4270     2.6360     0.5440 C.ar  1 <1>  -0.1500 
  6 H       -0.4450     1.5540     0.6270 H     1 <1>   0.1500 
  7 C        0.7640     3.3280     0.3990 C.ar  1 <1>  -0.1440 
  8 C        0.7810     4.7240     0.2930 C.ar  1 <1>  -0.1440 
  9 C       -0.3920     5.4590     0.3280 C.ar  1 <1>  -0.1500 
 10 H       -0.3800     6.5410     0.2460 H     1 <1>   0.1500 
 11 C        2.1860     5.2150     0.1470 C.3   1 <1>   0.4440 
 12 H        2.3460     5.7250    -0.8080 H     1 <1>   0.0000 
 13 H        2.4860     5.8560     0.9810 H     1 <1>   0.0000 
 14 N        2.9800     3.9890     0.1740 N.am  1 <1>  -0.6600 
 15 C        4.3530     4.0410     0.0590 C.2   1 <1>   0.5690 
 16 O        4.9430     5.1140    -0.0680 O.2   1 <1>  -0.5700 
 17 C        5.0850     2.6880     0.0980 C.3   1 <1>   0.3410 
 18 H        4.8490     2.2050     1.0530 H     1 <1>   0.0000 
 19 H        4.7010     2.0740    -0.7250 H     1 <1>   0.0000 
 20 O        6.4950     2.7980    -0.0270 O.3   1 <1>  -0.5600 
 21 C        7.1340     1.5310     0.0000 C.3   1 <1>   0.2800 
 22 H        6.9360     1.0220     0.9480 H     1 <1>   0.0000 
 23 H        6.7960     0.9130    -0.8370 H     1 <1>   0.0000 
 24 H        8.2120     1.6870    -0.0940 H     1 <1>   0.0000 
 25 C        2.1560     2.7900     0.3310 C.3   1 <1>   0.4440 
 26 H        2.2990     2.1380    -0.5350 H     1 <1>   0.0000 
 27 H        2.4400     2.2760     1.2540 H     1 <1>   0.0000 
@<TRIPOS>BOND
  1   1   2  1   
  2   2   3  ar  
  3   2   9  ar  
  4   3   4  1   
  5   3   5  ar  
  6   5   6  1   
  7   5   7  ar  
  8   7   8  ar  
  9   7  25  1   
 10   8   9  ar  
 11   8  11  1   
 12   9  10  1   
 13  11  12  1   
 14  11  13  1   
 15  11  14  1   
 16  14  15  am  
 17  14  25  1   
 18  15  16  2   
 19  15  17  1   
 20  17  18  1   
 21  17  19  1   
 22  17  20  1   
 23  20  21  1   
 24  21  22  1   
 25  21  23  1   
 26  21  24  1   
 27  25  26  1   
 28  25  27  1   
@<TRIPOS>SUBSTRUCTURE
  1 ****  14 GROUP 4 **** **** 0

# MOE 2022.02 (io_trps.svl 2020.11)

@<TRIPOS>MOLECULE
LCSOL029
21 22 1 0 0 
SMALL
USER_CHARGES


@<TRIPOS>ATOM
  1 H        2.1840     5.8270    -0.8320 H     1 <1>   0.1500 
  2 C        1.3730     5.1940    -0.5000 C.2   1 <1>   0.3280 
  3 N        0.1130     5.2270    -0.8710 N.2   1 <1>  -0.5650 
  4 C       -0.4690     4.2140    -0.1340 C.2   1 <1>   0.0460 
  5 C       -1.9160     3.8910    -0.2540 C.3   1 <1>   0.4110 
  6 H       -2.0380     2.8040    -0.3060 H     1 <1>   0.0000 
  7 H       -2.3120     4.3280    -1.1770 H     1 <1>   0.0000 
  8 S       -2.8390     4.5470     1.1740 S.3   1 <1>  -0.3320 
  9 C       -4.4920     4.0480     0.7300 C.ar  1 <1>   0.4120 
 10 N       -4.6530     3.1870    -0.3000 N.ar  1 <1>  -0.6200 
 11 C       -5.9170     2.8160    -0.6040 C.ar  1 <1>   0.1600 
 12 H       -6.0080     2.1260    -1.4380 H     1 <1>   0.1500 
 13 C       -7.0380     3.2620     0.0760 C.ar  1 <1>  -0.1500 
 14 H       -8.0290     2.9310    -0.2120 H     1 <1>   0.1500 
 15 C       -6.8530     4.1420     1.1340 C.ar  1 <1>  -0.1500 
 16 H       -7.7050     4.5150     1.6950 H     1 <1>   0.1500 
 17 C       -5.5610     4.5420     1.4690 C.ar  1 <1>  -0.1500 
 18 H       -5.4000     5.2280     2.2940 H     1 <1>   0.1500 
 19 C        0.4950     3.6100     0.6440 C.2   1 <1>  -0.0100 
 20 H        0.5040     2.7970     1.3550 H     1 <1>   0.1500 
 21 O        1.6830     4.2350     0.4140 O.3   1 <1>  -0.2800 
@<TRIPOS>BOND
  1   1   2  1   
  2   2   3  2   
  3   2  21  1   
  4   3   4  1   
  5   4   5  1   
  6   4  19  2   
  7   5   6  1   
  8   5   7  1   
  9   5   8  1   
 10   8   9  1   
 11   9  10  ar  
 12   9  17  ar  
 13  10  11  ar  
 14  11  12  1   
 15  11  13  ar  
 16  13  14  1   
 17  13  15  ar  
 18  15  16  1   
 19  15  17  ar  
 20  17  18  1   
 21  19  20  1   
 22  19  21  1   
@<TRIPOS>SUBSTRUCTURE
  1 ****   5 GROUP 4 **** **** 0

# MOE 2022.02 (io_trps.svl 2020.11)

@<TRIPOS>MOLECULE
LCSOL030
33 35 1 0 0 
SMALL
USER_CHARGES


@<TRIPOS>ATOM
  1 H       -8.9100    -4.3440     0.6470 H     1 <1>   0.1500 
  2 C       -7.8700    -4.5000     0.3730 C.ar  1 <1>  -0.1500 
  3 C       -7.1510    -5.5520     0.9280 C.ar  1 <1>  -0.1500 
  4 H       -7.6280    -6.2230     1.6390 H     1 <1>   0.1500 
  5 C       -5.8140    -5.7510     0.5710 C.ar  1 <1>  -0.1500 
  6 H       -5.2760    -6.5870     1.0150 H     1 <1>   0.1500 
  7 C       -5.1490    -4.9080    -0.3420 C.ar  1 <1>  -0.1080 
  8 C       -3.6350    -5.1440    -0.7480 C.3   1 <1>   0.1080 
  9 H       -3.5870    -5.8150    -1.6210 H     1 <1>   0.0000 
 10 C       -2.6210    -5.6010     0.3550 C.3   1 <1>   0.0000 
 11 H       -2.4040    -6.6730     0.3740 H     1 <1>   0.0000 
 12 H       -2.8870    -5.2800     1.3700 H     1 <1>   0.0000 
 13 C       -1.6060    -4.7110    -0.3220 C.3   1 <1>   0.0000 
 14 C       -0.5700    -5.3480    -1.2110 C.3   1 <1>   0.2250 
 15 H       -0.4900    -6.4370    -1.1670 H     1 <1>   0.0000 
 16 H       -0.5380    -5.0050    -2.2480 H     1 <1>   0.0000 
 17 N        0.4070    -4.6760    -0.3660 N.am  1 <1>  -0.5100 
 18 C        1.7680    -4.6910    -0.4210 C.2   1 <1>   0.5690 
 19 O        2.3980    -5.3280    -1.2620 O.2   1 <1>  -0.5700 
 20 C        2.4550    -3.8640     0.6320 C.3   1 <1>   0.0610 
 21 H        3.5390    -3.9410     0.5100 H     1 <1>   0.0000 
 22 H        2.1850    -4.2270     1.6280 H     1 <1>   0.0000 
 23 H        2.1630    -2.8150     0.5310 H     1 <1>   0.0000 
 24 C       -0.5580    -4.0230     0.5020 C.3   1 <1>   0.2250 
 25 H       -0.5260    -2.9330     0.4310 H     1 <1>   0.0000 
 26 H       -0.4790    -4.3400     1.5450 H     1 <1>   0.0000 
 27 C       -2.7070    -3.8990    -0.9600 C.3   1 <1>   0.0000 
 28 H       -3.0020    -3.0160    -0.3800 H     1 <1>   0.0000 
 29 H       -2.5600    -3.6000    -2.0020 H     1 <1>   0.0000 
 30 C       -5.9140    -3.8600    -0.8910 C.ar  1 <1>  -0.1500 
 31 H       -5.4570    -3.1870    -1.6140 H     1 <1>   0.1500 
 32 C       -7.2520    -3.6540    -0.5400 C.ar  1 <1>  -0.1500 
 33 H       -7.8080    -2.8320    -0.9840 H     1 <1>   0.1500 
@<TRIPOS>BOND
  1   1   2  1   
  2   2   3  ar  
  3   2  32  ar  
  4   3   4  1   
  5   3   5  ar  
  6   5   6  1   
  7   5   7  ar  
  8   7   8  1   
  9   7  30  ar  
 10   8   9  1   
 11   8  10  1   
 12   8  27  1   
 13  10  11  1   
 14  10  12  1   
 15  10  13  1   
 16  13  14  1   
 17  13  24  1   
 18  13  27  1   
 19  14  15  1   
 20  14  16  1   
 21  14  17  1   
 22  17  18  am  
 23  17  24  1   
 24  18  19  2   
 25  18  20  1   
 26  20  21  1   
 27  20  22  1   
 28  20  23  1   
 29  24  25  1   
 30  24  26  1   
 31  27  28  1   
 32  27  29  1   
 33  30  31  1   
 34  30  32  ar  
 35  32  33  1   
@<TRIPOS>SUBSTRUCTURE
  1 ****  10 GROUP 4 **** **** 0

# MOE 2022.02 (io_trps.svl 2020.11)

@<TRIPOS>MOLECULE
LCSOL031
19 20 1 0 0 
SMALL
USER_CHARGES


@<TRIPOS>ATOM
  1 H        0.2890     3.5460    -1.5020 H     1 <1>   0.3600 
  2 N       -0.2980     3.5760    -0.6680 N.3   1 <1>  -0.8780 
  3 H        0.0860     4.3310    -0.0960 H     1 <1>   0.3600 
  4 C       -0.1660     2.3060     0.0770 C.3   1 <1>   0.2430 
  5 C        1.2330     1.9100     0.4790 C.2   1 <1>   0.3930 
  6 N        1.8940     2.5010     1.4500 N.2   1 <1>  -0.3380 
  7 N        3.1320     1.8900     1.4940 N.2   1 <1>  -0.3380 
  8 C        3.1300     0.9830     0.5400 C.2   1 <1>   0.2980 
  9 C        4.1870     0.0430     0.1340 C.3   1 <1>   0.1800 
 10 H        3.8260    -0.9880     0.1900 H     1 <1>   0.0000 
 11 H        5.0600     0.1360     0.7860 H     1 <1>   0.0000 
 12 H        4.5040     0.2450    -0.8940 H     1 <1>   0.0000 
 13 O        1.9540     0.9400    -0.1580 O.3   1 <1>  -0.2800 
 14 C       -1.2830     1.9500     1.0300 C.3   1 <1>  -0.2000 
 15 H       -1.0350     1.4340     1.9500 H     1 <1>   0.1000 
 16 H       -2.1130     2.6410     1.1260 H     1 <1>   0.1000 
 17 C       -1.1400     1.2020    -0.2620 C.3   1 <1>  -0.2000 
 18 H       -0.8040     0.1730    -0.2150 H     1 <1>   0.1000 
 19 H       -1.8750     1.3870    -1.0370 H     1 <1>   0.1000 
@<TRIPOS>BOND
  1   1   2  1   
  2   2   3  1   
  3   2   4  1   
  4   4   5  1   
  5   4  14  1   
  6   4  17  1   
  7   5   6  2   
  8   5  13  1   
  9   6   7  1   
 10   7   8  2   
 11   8   9  1   
 12   8  13  1   
 13   9  10  1   
 14   9  11  1   
 15   9  12  1   
 16  14  15  1   
 17  14  16  1   
 18  14  17  1   
 19  17  18  1   
 20  17  19  1   
@<TRIPOS>SUBSTRUCTURE
  1 ****   5 GROUP 4 **** **** 0

# MOE 2022.02 (io_trps.svl 2020.11)

@<TRIPOS>MOLECULE
LCSOL032
26 26 1 0 0 
SMALL
USER_CHARGES


@<TRIPOS>ATOM
  1 H        1.0780     0.7180     0.9270 H     1 <1>   0.3700 
  2 N        0.7310     0.6800    -0.0300 N.am  1 <1>  -0.7300 
  3 C        1.6660     0.3720    -0.9910 C.2   1 <1>   0.5690 
  4 O        1.4210     0.2830    -2.1910 O.2   1 <1>  -0.5700 
  5 C        3.0710     0.1440    -0.4260 C.3   1 <1>   0.3410 
  6 H        3.7410     0.8710    -0.8970 H     1 <1>   0.0000 
  7 H        3.3750    -0.8740    -0.6900 H     1 <1>   0.0000 
  8 O        3.1120     0.3030     0.9940 O.3   1 <1>  -0.5600 
  9 C        4.4260     0.0980     1.4970 C.3   1 <1>   0.2800 
 10 H        4.7680    -0.9170     1.2730 H     1 <1>   0.0000 
 11 H        4.4030     0.2270     2.5830 H     1 <1>   0.0000 
 12 H        5.1180     0.8320     1.0730 H     1 <1>   0.0000 
 13 C       -0.6590     0.9390    -0.3150 C.3   1 <1>   0.3000 
 14 H       -0.8420     0.8670    -1.3940 H     1 <1>   0.0000 
 15 C       -1.1080     2.3070     0.1900 C.3   1 <1>   0.0000 
 16 H       -0.8240     3.1130    -0.4940 H     1 <1>   0.0000 
 17 H       -0.6550     2.5330     1.1630 H     1 <1>   0.0000 
 18 C       -2.6220     2.1880     0.3440 C.3   1 <1>   0.0000 
 19 H       -2.9580     2.6840     1.2610 H     1 <1>   0.0000 
 20 H       -3.1390     2.6670    -0.4950 H     1 <1>   0.0000 
 21 C       -2.9360     0.6920     0.3710 C.3   1 <1>   0.0000 
 22 H       -3.5750     0.4200     1.2170 H     1 <1>   0.0000 
 23 H       -3.4670     0.4110    -0.5470 H     1 <1>   0.0000 
 24 C       -1.5880    -0.0130     0.4280 C.3   1 <1>   0.0000 
 25 H       -1.6190    -1.0070    -0.0280 H     1 <1>   0.0000 
 26 H       -1.2720    -0.1350     1.4720 H     1 <1>   0.0000 
@<TRIPOS>BOND
  1   1   2  1   
  2   2   3  am  
  3   2  13  1   
  4   3   4  2   
  5   3   5  1   
  6   5   6  1   
  7   5   7  1   
  8   5   8  1   
  9   8   9  1   
 10   9  10  1   
 11   9  11  1   
 12   9  12  1   
 13  13  14  1   
 14  13  15  1   
 15  13  24  1   
 16  15  16  1   
 17  15  17  1   
 18  15  18  1   
 19  18  19  1   
 20  18  20  1   
 21  18  21  1   
 22  21  22  1   
 23  21  23  1   
 24  21  24  1   
 25  24  25  1   
 26  24  26  1   
@<TRIPOS>SUBSTRUCTURE
  1 ****   2 GROUP 4 **** **** 0

# MOE 2022.02 (io_trps.svl 2020.11)

@<TRIPOS>MOLECULE
LCSOL033
23 24 1 0 0 
SMALL
USER_CHARGES


@<TRIPOS>ATOM
  1 H        5.3120     1.9480    -0.6910 H     1 <1>   0.1500 
  2 C        5.4880     0.9110    -0.4350 C.2   1 <1>   0.1390 
  3 N        6.7480     0.4660    -0.3880 N.2   1 <1>  -0.7070 
  4 N        6.6120    -0.8280    -0.0500 N.pl3 1 <1>   0.3140 
  5 C        7.7900    -1.6480     0.0980 C.3   1 <1>   0.2560 
  6 H        7.4940    -2.6630     0.3770 H     1 <1>   0.0000 
  7 H        8.3210    -1.6640    -0.8570 H     1 <1>   0.0000 
  8 H        8.4170    -1.2140     0.8800 H     1 <1>   0.0000 
  9 C        5.3130    -1.2150     0.1180 C.2   1 <1>  -0.3020 
 10 H        5.0550    -2.2280     0.3910 H     1 <1>   0.1500 
 11 C        4.5490    -0.0980    -0.1280 C.2   1 <1>   0.0630 
 12 N        3.1710    -0.0830    -0.0600 N.am  1 <1>  -0.4930 
 13 H        2.7100    -0.9490     0.1850 H     1 <1>   0.3700 
 14 C        2.3800     1.0270    -0.3020 C.2   1 <1>   0.7150 
 15 O        2.8290     2.1300    -0.6060 O.2   1 <1>  -0.5700 
 16 C        0.9410     0.7990    -0.1720 C.2   1 <1>  -0.0450 
 17 S        0.2800    -0.7300     0.2520 S.3   1 <1>  -0.0800 
 18 C       -1.3240    -0.1390     0.1810 C.2   1 <1>  -0.1100 
 19 H       -2.1600    -0.7920     0.3900 H     1 <1>   0.1500 
 20 C       -1.3480     1.1900    -0.1570 C.2   1 <1>   0.0570 
 21 BR      -2.9140     2.2230    -0.3420 Br    1 <1>  -0.0570 
 22 C       -0.0590     1.7380    -0.3610 C.2   1 <1>  -0.1500 
 23 H        0.1480     2.7670    -0.6350 H     1 <1>   0.1500 
@<TRIPOS>BOND
  1   1   2  1   
  2   2   3  2   
  3   2  11  1   
  4   3   4  1   
  5   4   5  1   
  6   4   9  1   
  7   5   6  1   
  8   5   7  1   
  9   5   8  1   
 10   9  10  1   
 11   9  11  2   
 12  11  12  1   
 13  12  13  1   
 14  12  14  am  
 15  14  15  2   
 16  14  16  1   
 17  16  17  1   
 18  16  22  2   
 19  17  18  1   
 20  18  19  1   
 21  18  20  2   
 22  20  21  1   
 23  20  22  1   
 24  22  23  1   
@<TRIPOS>SUBSTRUCTURE
  1 ****  12 GROUP 4 **** **** 0

# MOE 2022.02 (io_trps.svl 2020.11)

@<TRIPOS>MOLECULE
LCSOL034
35 37 1 0 0 
SMALL
USER_CHARGES


@<TRIPOS>ATOM
  1 H        9.8670    -3.0670    -0.2610 H     1 <1>   0.4000 
  2 O        8.9930    -3.0250    -0.6820 O.3   1 <1>  -0.6580 
  3 C        8.3910    -1.8010    -0.1880 C.3   1 <1>   0.2580 
  4 C        9.2050    -0.6140    -0.6790 C.3   1 <1>   0.0000 
  5 H        9.2180    -0.5800    -1.7740 H     1 <1>   0.0000 
  6 H       10.2410    -0.6800    -0.3310 H     1 <1>   0.0000 
  7 H        8.7940     0.3360    -0.3200 H     1 <1>   0.0000 
  8 C        8.0930    -1.8050     1.3370 C.3   1 <1>   0.0000 
  9 H        8.6970    -2.4880     1.9420 H     1 <1>   0.0000 
 10 H        8.1050    -0.8160     1.8080 H     1 <1>   0.0000 
 11 C        6.6810    -2.3150     0.9970 C.3   1 <1>   0.0000 
 12 H        5.8840    -1.9150     1.6280 H     1 <1>   0.0000 
 13 H        6.5980    -3.4080     0.9710 H     1 <1>   0.0000 
 14 C        6.8360    -1.6560    -0.3990 C.3   1 <1>   0.2580 
 15 H        6.5510    -0.5960    -0.4220 H     1 <1>   0.0000 
 16 O        6.3060    -2.3560    -1.5470 O.3   1 <1>  -0.3400 
 17 C        4.9680    -2.7030    -1.5480 C.ar  1 <1>   0.0820 
 18 C        4.7200    -3.9220    -2.1960 C.ar  1 <1>  -0.1500 
 19 H        5.5510    -4.4820    -2.6170 H     1 <1>   0.1500 
 20 C        3.4270    -4.4160    -2.2920 C.ar  1 <1>  -0.1500 
 21 H        3.2390    -5.3640    -2.7880 H     1 <1>   0.1500 
 22 C        2.3790    -3.6850    -1.7460 C.ar  1 <1>  -0.1500 
 23 H        1.3670    -4.0780    -1.8240 H     1 <1>   0.1500 
 24 C        2.6180    -2.4540    -1.1100 C.ar  1 <1>   0.0000 
 25 C        1.5540    -1.7190    -0.5750 C.ar  1 <1>  -0.1500 
 26 H        0.5340    -2.0920    -0.6380 H     1 <1>   0.1500 
 27 C        1.7890    -0.4970     0.0400 C.ar  1 <1>  -0.1500 
 28 H        0.9680     0.0790     0.4550 H     1 <1>   0.1500 
 29 C        3.0910    -0.0350     0.1050 C.ar  1 <1>   0.1660 
 30 C        3.3960     1.2800     0.7560 C.3   1 <1>   0.1440 
 31 H        2.8650     2.0880     0.2430 H     1 <1>   0.0000 
 32 H        4.4680     1.4960     0.7150 H     1 <1>   0.0000 
 33 H        3.0930     1.2600     1.8080 H     1 <1>   0.0000 
 34 N        4.1360    -0.7300    -0.4020 N.ar  1 <1>  -0.6200 
 35 C        3.9270    -1.9290    -1.0030 C.ar  1 <1>   0.3100 
@<TRIPOS>BOND
  1   1   2  1   
  2   2   3  1   
  3   3   4  1   
  4   3   8  1   
  5   3  14  1   
  6   4   5  1   
  7   4   6  1   
  8   4   7  1   
  9   8   9  1   
 10   8  10  1   
 11   8  11  1   
 12  11  12  1   
 13  11  13  1   
 14  11  14  1   
 15  14  15  1   
 16  14  16  1   
 17  16  17  1   
 18  17  18  ar  
 19  17  35  ar  
 20  18  19  1   
 21  18  20  ar  
 22  20  21  1   
 23  20  22  ar  
 24  22  23  1   
 25  22  24  ar  
 26  24  25  ar  
 27  24  35  ar  
 28  25  26  1   
 29  25  27  ar  
 30  27  28  1   
 31  27  29  ar  
 32  29  30  1   
 33  29  34  ar  
 34  30  31  1   
 35  30  32  1   
 36  30  33  1   
 37  34  35  ar  
@<TRIPOS>SUBSTRUCTURE
  1 ****  35 GROUP 4 **** **** 0

# MOE 2022.02 (io_trps.svl 2020.11)

@<TRIPOS>MOLECULE
LCSOL035
26 27 1 0 0 
SMALL
USER_CHARGES


@<TRIPOS>ATOM
  1 H        4.0600     3.8960     1.7110 H     1 <1>   0.1500 
  2 C        3.3170     4.0130     0.9340 C.2   1 <1>  -0.1100 
  3 S        3.2390     2.8950    -0.3550 S.3   1 <1>  -0.0800 
  4 C        1.9260     3.7280    -1.0680 C.2   1 <1>  -0.1100 
  5 H        1.4950     3.3570    -1.9890 H     1 <1>   0.1500 
  6 C        1.5400     4.8430    -0.3450 C.2   1 <1>  -0.1810 
  7 C        0.4200     5.7560    -0.7260 C.3   1 <1>   0.4810 
  8 H        0.5990     6.7760    -0.3680 H     1 <1>   0.0000 
  9 H        0.2880     5.7950    -1.8130 H     1 <1>   0.0000 
 10 N       -0.7920     5.2620    -0.1200 N.am  1 <1>  -0.7300 
 11 H       -0.7390     4.4760     0.5150 H     1 <1>   0.3700 
 12 C       -2.0090     5.8480    -0.3910 C.2   1 <1>   0.5770 
 13 O       -2.1040     6.8150    -1.1480 O.2   1 <1>  -0.5700 
 14 C       -3.2000     5.1830     0.3440 C.3   1 <1>   0.0530 
 15 H       -3.2410     5.5250     1.3900 H     1 <1>   0.0000 
 16 C       -3.3640     3.6400     0.2420 C.3   1 <1>   0.0000 
 17 H       -2.9720     3.2040    -0.6850 H     1 <1>   0.0000 
 18 H       -2.9850     3.0660     1.0920 H     1 <1>   0.0000 
 19 C       -4.8870     3.8660     0.2250 C.3   1 <1>   0.0000 
 20 H       -5.3430     3.8690     1.2210 H     1 <1>   0.0000 
 21 H       -5.4590     3.2040    -0.4290 H     1 <1>   0.0000 
 22 C       -4.5990     5.2720    -0.3300 C.3   1 <1>   0.0000 
 23 H       -5.2530     6.0660     0.0410 H     1 <1>   0.0000 
 24 H       -4.5710     5.3170    -1.4250 H     1 <1>   0.0000 
 25 C        2.3600     4.9980     0.8230 C.2   1 <1>  -0.1500 
 26 H        2.2510     5.7980     1.5460 H     1 <1>   0.1500 
@<TRIPOS>BOND
  1   1   2  1   
  2   2   3  1   
  3   2  25  2   
  4   3   4  1   
  5   4   5  1   
  6   4   6  2   
  7   6   7  1   
  8   6  25  1   
  9   7   8  1   
 10   7   9  1   
 11   7  10  1   
 12  10  11  1   
 13  10  12  am  
 14  12  13  2   
 15  12  14  1   
 16  14  15  1   
 17  14  16  1   
 18  14  22  1   
 19  16  17  1   
 20  16  18  1   
 21  16  19  1   
 22  19  20  1   
 23  19  21  1   
 24  19  22  1   
 25  22  23  1   
 26  22  24  1   
 27  25  26  1   
@<TRIPOS>SUBSTRUCTURE
  1 ****  10 GROUP 4 **** **** 0

# MOE 2022.02 (io_trps.svl 2020.11)

@<TRIPOS>MOLECULE
LCSOL036
22 22 1 0 0 
SMALL
USER_CHARGES


@<TRIPOS>ATOM
  1 H        6.7260    -2.9060    -0.4190 H     1 <1>   0.5000 
  2 O        5.8280    -2.7780    -0.7920 O.3   1 <1>  -0.6500 
  3 C        5.0460    -3.5820    -0.0410 C.2   1 <1>   0.6590 
  4 O        5.5380    -4.2890     0.8240 O.2   1 <1>  -0.5700 
  5 C        3.5840    -3.4820    -0.3910 C.3   1 <1>   0.2910 
  6 H        3.4830    -3.2900    -1.4640 H     1 <1>   0.0000 
  7 H        3.1170    -4.4480    -0.1750 H     1 <1>   0.0000 
  8 S        2.7990    -2.1590     0.5780 S.3   1 <1>  -0.4600 
  9 C        1.1380    -2.2040    -0.1590 C.3   1 <1>   0.2300 
 10 H        1.2240    -2.0230    -1.2380 H     1 <1>   0.0000 
 11 C        0.3800    -3.5050     0.0980 C.3   1 <1>   0.0000 
 12 H        0.6310    -4.2790    -0.6340 H     1 <1>   0.0000 
 13 H        0.5950    -3.9090     1.0950 H     1 <1>   0.0000 
 14 C       -1.1010    -3.1270     0.0230 C.3   1 <1>   0.0000 
 15 H       -1.5720    -3.5370    -0.8780 H     1 <1>   0.0000 
 16 H       -1.6390    -3.5330     0.8860 H     1 <1>   0.0000 
 17 C       -1.1570    -1.6010     0.0110 C.3   1 <1>   0.0000 
 18 H       -1.9490    -1.2100     0.6560 H     1 <1>   0.0000 
 19 H       -1.3540    -1.2470    -1.0090 H     1 <1>   0.0000 
 20 C        0.2260    -1.1490     0.4580 C.3   1 <1>   0.0000 
 21 H        0.4540    -0.1370     0.1100 H     1 <1>   0.0000 
 22 H        0.2770    -1.1570     1.5540 H     1 <1>   0.0000 
@<TRIPOS>BOND
  1   1   2  1   
  2   2   3  1   
  3   3   4  2   
  4   3   5  1   
  5   5   6  1   
  6   5   7  1   
  7   5   8  1   
  8   8   9  1   
  9   9  10  1   
 10   9  11  1   
 11   9  20  1   
 12  11  12  1   
 13  11  13  1   
 14  11  14  1   
 15  14  15  1   
 16  14  16  1   
 17  14  17  1   
 18  17  18  1   
 19  17  19  1   
 20  17  20  1   
 21  20  21  1   
 22  20  22  1   
@<TRIPOS>SUBSTRUCTURE
  1 ****   8 GROUP 4 **** **** 0

# MOE 2022.02 (io_trps.svl 2020.11)

@<TRIPOS>MOLECULE
LCSOL037
34 34 1 0 0 
SMALL
USER_CHARGES


@<TRIPOS>ATOM
  1 H        1.0720     0.6010     1.6240 H     1 <1>   0.1500 
  2 C        1.4870    -0.1290     0.9390 C.ar  1 <1>   0.1600 
  3 N        2.8360    -0.2350     1.0210 N.ar  1 <1>  -0.6200 
  4 C        3.4530    -1.1140     0.2130 C.ar  1 <1>   0.7200 
  5 N        4.8210    -1.2350     0.2840 N.pl3 1 <1>  -0.8380 
  6 C        5.4940    -2.1740    -0.5810 C.3   1 <1>   0.3690 
  7 H        5.1480    -3.1970    -0.3960 H     1 <1>   0.0000 
  8 H        5.3270    -1.9280    -1.6350 H     1 <1>   0.0000 
  9 H        6.5770    -2.1680    -0.4170 H     1 <1>   0.0000 
 10 C        5.5500    -0.4150     1.2230 C.3   1 <1>   0.3690 
 11 H        6.6270    -0.6110     1.1770 H     1 <1>   0.0000 
 12 H        5.4080     0.6500     1.0090 H     1 <1>   0.0000 
 13 H        5.2310    -0.6160     2.2520 H     1 <1>   0.0000 
 14 N        2.7780    -1.8810    -0.6600 N.ar  1 <1>  -0.6200 
 15 C        1.4360    -1.7420    -0.7070 C.ar  1 <1>   0.1600 
 16 H        0.9530    -2.3900    -1.4320 H     1 <1>   0.1500 
 17 C        0.7110    -0.8700     0.0780 C.ar  1 <1>   0.1170 
 18 N       -0.6930    -0.8110    -0.0550 N.am  1 <1>  -0.5470 
 19 H       -1.1020    -1.4320    -0.7410 H     1 <1>   0.3700 
 20 C       -1.5520     0.0090     0.6590 C.2   1 <1>   0.5690 
 21 O       -1.1900     0.8100     1.5160 O.2   1 <1>  -0.5700 
 22 C       -3.0440    -0.1610     0.2880 C.3   1 <1>   0.0610 
 23 C       -3.8960     0.7970     1.1410 C.3   1 <1>   0.0000 
 24 H       -3.6090     1.8410     0.9700 H     1 <1>   0.0000 
 25 H       -4.9620     0.7020     0.9040 H     1 <1>   0.0000 
 26 H       -3.7730     0.5930     2.2110 H     1 <1>   0.0000 
 27 C       -3.2640     0.1780    -1.1940 C.3   1 <1>   0.0000 
 28 H       -2.7580    -0.5300    -1.8580 H     1 <1>   0.0000 
 29 H       -4.3290     0.1600    -1.4500 H     1 <1>   0.0000 
 30 H       -2.8780     1.1770    -1.4290 H     1 <1>   0.0000 
 31 C       -3.4970    -1.6020     0.5740 C.3   1 <1>   0.0000 
 32 H       -4.5740    -1.7180     0.4110 H     1 <1>   0.0000 
 33 H       -3.2800    -1.8820     1.6110 H     1 <1>   0.0000 
 34 H       -2.9910    -2.3280    -0.0720 H     1 <1>   0.0000 
@<TRIPOS>BOND
  1   1   2  1   
  2   2   3  ar  
  3   2  17  ar  
  4   3   4  ar  
  5   4   5  1   
  6   4  14  ar  
  7   5   6  1   
  8   5  10  1   
  9   6   7  1   
 10   6   8  1   
 11   6   9  1   
 12  10  11  1   
 13  10  12  1   
 14  10  13  1   
 15  14  15  ar  
 16  15  16  1   
 17  15  17  ar  
 18  17  18  1   
 19  18  19  1   
 20  18  20  am  
 21  20  21  2   
 22  20  22  1   
 23  22  23  1   
 24  22  27  1   
 25  22  31  1   
 26  23  24  1   
 27  23  25  1   
 28  23  26  1   
 29  27  28  1   
 30  27  29  1   
 31  27  30  1   
 32  31  32  1   
 33  31  33  1   
 34  31  34  1   
@<TRIPOS>SUBSTRUCTURE
  1 ****  17 GROUP 4 **** **** 0

# MOE 2022.02 (io_trps.svl 2020.11)

@<TRIPOS>MOLECULE
LCSOL038
18 18 1 0 0 
SMALL
USER_CHARGES


@<TRIPOS>ATOM
  1 H        8.3920    -1.2180    -0.0880 H     1 <1>   0.4000 
  2 O        7.7290    -1.8860     0.1610 O.3   1 <1>  -0.6800 
  3 C        6.4580    -1.2460     0.1190 C.3   1 <1>   0.2800 
  4 H        6.2810    -0.8990    -0.9050 H     1 <1>   0.0000 
  5 H        6.4870    -0.3740     0.7820 H     1 <1>   0.0000 
  6 C        5.3800    -2.2320     0.5580 C.3   1 <1>   0.1800 
  7 H        5.5770    -2.5600     1.5850 H     1 <1>   0.0000 
  8 H        5.4410    -3.1370    -0.0590 H     1 <1>   0.0000 
  9 C        4.0270    -1.6420     0.4650 C.2   1 <1>  -0.0400 
 10 O        3.7320    -0.6530     1.3500 O.3   1 <1>  -0.0190 
 11 N        2.4430    -0.2040     1.1270 N.2   1 <1>  -0.4100 
 12 C        1.9700    -0.9440     0.1170 C.2   1 <1>   0.1080 
 13 C        0.5950    -0.7320    -0.3840 C.3   1 <1>   0.1810 
 14 H        0.5620     0.1370    -1.0490 H     1 <1>   0.0000 
 15 H       -0.1030    -0.5620     0.4430 H     1 <1>   0.0000 
 16 H        0.2430    -1.6040    -0.9450 H     1 <1>   0.0000 
 17 C        2.9380    -1.8660    -0.3410 C.2   1 <1>  -0.1500 
 18 H        2.8520    -2.5880    -1.1390 H     1 <1>   0.1500 
@<TRIPOS>BOND
  1   1   2  1   
  2   2   3  1   
  3   3   4  1   
  4   3   5  1   
  5   3   6  1   
  6   6   7  1   
  7   6   8  1   
  8   6   9  1   
  9   9  10  1   
 10   9  17  2   
 11  10  11  1   
 12  11  12  2   
 13  12  13  1   
 14  12  17  1   
 15  13  14  1   
 16  13  15  1   
 17  13  16  1   
 18  17  18  1   
@<TRIPOS>SUBSTRUCTURE
  1 ****   9 GROUP 4 **** **** 0

# MOE 2022.02 (io_trps.svl 2020.11)

@<TRIPOS>MOLECULE
LCSOL039
22 22 1 0 0 
SMALL
USER_CHARGES


@<TRIPOS>ATOM
  1 H       -5.1670     0.3580     0.3220 H     1 <1>   0.1500 
  2 C       -4.1540     0.7220     0.4710 C.ar  1 <1>   0.1600 
  3 N       -3.8960     1.9410    -0.0480 N.ar  1 <1>  -0.6200 
  4 C       -2.6470     2.4630     0.1040 C.ar  1 <1>   0.4120 
  5 S       -2.4360     4.1030    -0.5930 S.3   1 <1>  -0.3320 
  6 C       -4.1600     4.5830    -0.8860 C.3   1 <1>   0.2300 
  7 H       -4.7360     4.5490     0.0430 H     1 <1>   0.0000 
  8 H       -4.1810     5.6090    -1.2640 H     1 <1>   0.0000 
  9 H       -4.6240     3.9350    -1.6350 H     1 <1>   0.0000 
 10 C       -1.6270     1.7610     0.7590 C.ar  1 <1>   0.0860 
 11 C       -0.2240     2.2190     0.9660 C.2   1 <1>   0.5440 
 12 O        0.4130     1.7950     1.9270 O.2   1 <1>  -0.5700 
 13 N        0.3280     3.0630     0.0310 N.am  1 <1>  -0.7300 
 14 H       -0.2380     3.3990    -0.7410 H     1 <1>   0.3700 
 15 C        1.6950     3.5020     0.1310 C.3   1 <1>   0.3000 
 16 H        2.3540     2.6310     0.1840 H     1 <1>   0.0000 
 17 H        1.9370     4.1010    -0.7500 H     1 <1>   0.0000 
 18 H        1.8130     4.1030     1.0370 H     1 <1>   0.0000 
 19 C       -1.9420     0.4990     1.2930 C.ar  1 <1>  -0.1500 
 20 H       -1.1840    -0.0760     1.8220 H     1 <1>   0.1500 
 21 C       -3.2190    -0.0310     1.1480 C.ar  1 <1>  -0.1500 
 22 H       -3.4710    -1.0050     1.5530 H     1 <1>   0.1500 
@<TRIPOS>BOND
  1   1   2  1   
  2   2   3  ar  
  3   2  21  ar  
  4   3   4  ar  
  5   4   5  1   
  6   4  10  ar  
  7   5   6  1   
  8   6   7  1   
  9   6   8  1   
 10   6   9  1   
 11  10  11  1   
 12  10  19  ar  
 13  11  12  2   
 14  11  13  am  
 15  13  14  1   
 16  13  15  1   
 17  15  16  1   
 18  15  17  1   
 19  15  18  1   
 20  19  20  1   
 21  19  21  ar  
 22  21  22  1   
@<TRIPOS>SUBSTRUCTURE
  1 ****  10 GROUP 4 **** **** 0

# MOE 2022.02 (io_trps.svl 2020.11)

@<TRIPOS>MOLECULE
LCSOL040
29 31 1 0 0 
SMALL
USER_CHARGES


@<TRIPOS>ATOM
  1 H        5.6320     6.8030    -0.8990 H     1 <1>   0.5000 
  2 O        5.5820     6.2800    -0.0720 O.3   1 <1>  -0.6500 
  3 C        5.3490     5.0260    -0.5040 C.2   1 <1>   0.7200 
  4 O        5.2980     4.7450    -1.6890 O.2   1 <1>  -0.5700 
  5 C        5.1960     4.0600     0.5960 C.3   1 <1>  -0.1000 
  6 H        6.0920     3.9580     1.2000 H     1 <1>   0.1000 
  7 C        4.3800     2.8060     0.3970 C.3   1 <1>  -0.2000 
  8 H        4.7490     1.8880     0.8390 H     1 <1>   0.1000 
  9 H        3.8990     2.6620    -0.5650 H     1 <1>   0.1000 
 10 C        3.8790     3.8820     1.3220 C.3   1 <1>  -0.0140 
 11 H        3.9430     3.6700     2.3870 H     1 <1>   0.1000 
 12 C        2.6910     4.6870     0.9520 C.2   1 <1>  -0.0860 
 13 C        2.4950     6.0440     1.2090 C.2   1 <1>   0.1390 
 14 H        3.1540     6.7510     1.6950 H     1 <1>   0.1500 
 15 N        1.3090     6.4610     0.7620 N.2   1 <1>  -0.7070 
 16 N        0.7290     5.3520     0.2150 N.pl3 1 <1>   0.5930 
 17 C       -0.5650     5.4210    -0.3770 C.ar  1 <1>  -0.0230 
 18 C       -1.2520     6.6450    -0.3900 C.ar  1 <1>  -0.1500 
 19 H       -0.8100     7.5400     0.0460 H     1 <1>   0.1500 
 20 C       -2.5220     6.7350    -0.9640 C.ar  1 <1>  -0.1500 
 21 H       -3.0470     7.6870    -0.9690 H     1 <1>   0.1500 
 22 C       -3.1130     5.6080    -1.5300 C.ar  1 <1>  -0.1500 
 23 H       -4.1020     5.6790    -1.9770 H     1 <1>   0.1500 
 24 C       -2.4370     4.3890    -1.5220 C.ar  1 <1>  -0.1500 
 25 H       -2.9010     3.5110    -1.9650 H     1 <1>   0.1500 
 26 C       -1.1660     4.2910    -0.9480 C.ar  1 <1>  -0.1500 
 27 H       -0.6770     3.3220    -0.9660 H     1 <1>   0.1500 
 28 C        1.5530     4.2480     0.3320 C.2   1 <1>  -0.3020 
 29 H        1.2690     3.2730    -0.0300 H     1 <1>   0.1500 
@<TRIPOS>BOND
  1   1   2  1   
  2   2   3  1   
  3   3   4  2   
  4   3   5  1   
  5   5   6  1   
  6   5   7  1   
  7   5  10  1   
  8   7   8  1   
  9   7   9  1   
 10   7  10  1   
 11  10  11  1   
 12  10  12  1   
 13  12  13  1   
 14  12  28  2   
 15  13  14  1   
 16  13  15  2   
 17  15  16  1   
 18  16  17  1   
 19  16  28  1   
 20  17  18  ar  
 21  17  26  ar  
 22  18  19  1   
 23  18  20  ar  
 24  20  21  1   
 25  20  22  ar  
 26  22  23  1   
 27  22  24  ar  
 28  24  25  1   
 29  24  26  ar  
 30  26  27  1   
 31  28  29  1   
@<TRIPOS>SUBSTRUCTURE
  1 ****  28 GROUP 4 **** **** 0

# MOE 2022.02 (io_trps.svl 2020.11)

@<TRIPOS>MOLECULE
LCSOL041
28 28 1 0 0 
SMALL
USER_CHARGES


@<TRIPOS>ATOM
  1 H        9.5980    -1.7430     1.7000 H     1 <1>   0.4000 
  2 O        8.6900    -1.5260     1.9720 O.3   1 <1>  -0.6800 
  3 C        7.8600    -1.6860     0.8270 C.3   1 <1>   0.2800 
  4 H        7.9490    -2.7230     0.4900 H     1 <1>   0.0000 
  5 H        8.2340    -1.0180     0.0470 H     1 <1>   0.0000 
  6 C        6.4240    -1.3450     1.2160 C.3   1 <1>   0.0000 
  7 H        6.4060    -0.3110     1.5910 H     1 <1>   0.0000 
  8 H        6.1600    -1.9580     2.0890 H     1 <1>   0.0000 
  9 C        5.3540    -1.5110     0.0970 C.3   1 <1>   0.1440 
 10 C        3.9830    -1.1080     0.6870 C.ar  1 <1>  -0.1440 
 11 C        3.3820    -1.8990     1.6880 C.ar  1 <1>  -0.1500 
 12 H        3.8750    -2.7960     2.0550 H     1 <1>   0.1500 
 13 C        2.1490    -1.5560     2.2490 C.ar  1 <1>  -0.1500 
 14 H        1.7110    -2.1860     3.0190 H     1 <1>   0.1500 
 15 C        1.4860    -0.4100     1.8270 C.ar  1 <1>  -0.1500 
 16 H        0.5290    -0.1410     2.2630 H     1 <1>   0.1500 
 17 C        2.0600     0.3940     0.8480 C.ar  1 <1>  -0.1500 
 18 H        1.5490     1.2950     0.5190 H     1 <1>   0.1500 
 19 C        3.2960     0.0510     0.2880 C.ar  1 <1>  -0.1500 
 20 H        3.7010     0.7210    -0.4650 H     1 <1>   0.1500 
 21 C        5.7500    -0.6580    -1.1320 C.3   1 <1>   0.0000 
 22 H        6.6670    -1.0270    -1.6050 H     1 <1>   0.0000 
 23 H        5.9270     0.3880    -0.8570 H     1 <1>   0.0000 
 24 H        4.9700    -0.6810    -1.9030 H     1 <1>   0.0000 
 25 C        5.2920    -2.9800    -0.3880 C.3   1 <1>   0.0000 
 26 H        4.4440    -3.1350    -1.0660 H     1 <1>   0.0000 
 27 H        6.1990    -3.2640    -0.9340 H     1 <1>   0.0000 
 28 H        5.1870    -3.6860     0.4420 H     1 <1>   0.0000 
@<TRIPOS>BOND
  1   1   2  1   
  2   2   3  1   
  3   3   4  1   
  4   3   5  1   
  5   3   6  1   
  6   6   7  1   
  7   6   8  1   
  8   6   9  1   
  9   9  10  1   
 10   9  21  1   
 11   9  25  1   
 12  10  11  ar  
 13  10  19  ar  
 14  11  12  1   
 15  11  13  ar  
 16  13  14  1   
 17  13  15  ar  
 18  15  16  1   
 19  15  17  ar  
 20  17  18  1   
 21  17  19  ar  
 22  19  20  1   
 23  21  22  1   
 24  21  23  1   
 25  21  24  1   
 26  25  26  1   
 27  25  27  1   
 28  25  28  1   
@<TRIPOS>SUBSTRUCTURE
  1 ****  10 GROUP 4 **** **** 0

# MOE 2022.02 (io_trps.svl 2020.11)

@<TRIPOS>MOLECULE
LCSOL042
19 19 1 0 0 
SMALL
USER_CHARGES


@<TRIPOS>ATOM
  1 H        5.6010     5.1290     0.1470 H     1 <1>   0.5000 
  2 O        4.6780     4.7980     0.1360 O.3   1 <1>  -0.6500 
  3 C        4.8110     3.4620     0.0660 C.2   1 <1>   0.6340 
  4 O        5.9060     2.9340     0.0320 O.2   1 <1>  -0.5700 
  5 C        3.5060     2.7590     0.0390 C.ar  1 <1>   0.0860 
  6 C        3.5080     1.3620    -0.0350 C.ar  1 <1>  -0.1500 
  7 H        4.4490     0.8160    -0.0700 H     1 <1>   0.1500 
  8 C        2.3020     0.6580    -0.0630 C.ar  1 <1>  -0.1500 
  9 H        2.3300    -0.4290    -0.1210 H     1 <1>   0.1500 
 10 C        1.0760     1.3380    -0.0190 C.ar  1 <1>  -0.1440 
 11 C       -0.2080     0.5510    -0.0510 C.3   1 <1>   0.1440 
 12 H       -0.8010     0.8270    -0.9290 H     1 <1>   0.0000 
 13 H       -0.7890     0.7330     0.8580 H     1 <1>   0.0000 
 14 H       -0.0160    -0.5260    -0.1090 H     1 <1>   0.0000 
 15 C        1.0760     2.7450     0.0560 C.ar  1 <1>   0.0730 
 16 C       -0.1510     3.4910     0.1040 C.1   1 <1>   0.4840 
 17 N       -1.1420     4.0930     0.1430 N.1   1 <1>  -0.5570 
 18 C        2.2890     3.4480     0.0840 C.ar  1 <1>  -0.1500 
 19 H        2.2800     4.5360     0.1420 H     1 <1>   0.1500 
@<TRIPOS>BOND
  1   1   2  1   
  2   2   3  1   
  3   3   4  2   
  4   3   5  1   
  5   5   6  ar  
  6   5  18  ar  
  7   6   7  1   
  8   6   8  ar  
  9   8   9  1   
 10   8  10  ar  
 11  10  11  1   
 12  10  15  ar  
 13  11  12  1   
 14  11  13  1   
 15  11  14  1   
 16  15  16  1   
 17  15  18  ar  
 18  16  17  3   
 19  18  19  1   
@<TRIPOS>SUBSTRUCTURE
  1 ****  18 GROUP 4 **** **** 0

# MOE 2022.02 (io_trps.svl 2020.11)

@<TRIPOS>MOLECULE
LCSOL043
18 18 1 0 0 
SMALL
USER_CHARGES


@<TRIPOS>ATOM
  1 H        3.5160     4.7970    -0.9380 H     1 <1>   0.3600 
  2 N        2.5850     4.4070    -0.8080 N.3   1 <1>  -0.7790 
  3 C        1.6180     5.2840    -0.1260 C.3   1 <1>   0.2100 
  4 H        0.8940     5.7560    -0.7960 H     1 <1>   0.0000 
  5 H        2.0830     6.0610     0.4930 H     1 <1>   0.0000 
  6 C        1.1120     4.0650     0.6810 C.3   1 <1>   0.2580 
  7 H        1.0340     4.2520     1.7580 H     1 <1>   0.0000 
  8 O       -0.0790     3.3820     0.2110 O.3   1 <1>  -0.5380 
  9 C       -1.3230     4.0470     0.4550 C.3   1 <1>   0.2800 
 10 H       -1.4020     4.2620     1.5260 H     1 <1>   0.0000 
 11 H       -1.3290     4.9960    -0.0900 H     1 <1>   0.0000 
 12 C       -2.5220     3.2100     0.0230 C.3   1 <1>   1.0200 
 13 F       -2.5060     2.9460    -1.3010 F     1 <1>  -0.3400 
 14 F       -2.5820     2.0360     0.6880 F     1 <1>  -0.3400 
 15 F       -3.6720     3.8790     0.2850 F     1 <1>  -0.3400 
 16 C        2.4620     3.4250     0.2870 C.3   1 <1>   0.2100 
 17 H        3.2390     3.5170     1.0550 H     1 <1>   0.0000 
 18 H        2.4160     2.3840    -0.0460 H     1 <1>   0.0000 
@<TRIPOS>BOND
  1   1   2  1   
  2   2   3  1   
  3   2  16  1   
  4   3   4  1   
  5   3   5  1   
  6   3   6  1   
  7   6   7  1   
  8   6   8  1   
  9   6  16  1   
 10   8   9  1   
 11   9  10  1   
 12   9  11  1   
 13   9  12  1   
 14  12  13  1   
 15  12  14  1   
 16  12  15  1   
 17  16  17  1   
 18  16  18  1   
@<TRIPOS>SUBSTRUCTURE
  1 ****   8 GROUP 4 **** **** 0

# MOE 2022.02 (io_trps.svl 2020.11)

@<TRIPOS>MOLECULE
LCSOL044
19 20 1 0 0 
SMALL
USER_CHARGES


@<TRIPOS>ATOM
  1 H       -4.6840     2.0500    -0.6830 H     1 <1>   0.3600 
  2 N       -4.0680     1.9210     0.1200 N.3   1 <1>  -0.9000 
  3 C       -2.9070     2.8490     0.0000 C.3   1 <1>   0.2700 
  4 H       -2.7900     3.1720    -1.0410 H     1 <1>   0.0000 
  5 H       -3.0440     3.7310     0.6310 H     1 <1>   0.0000 
  6 C       -1.7700     1.9810     0.4500 C.3   1 <1>   0.0000 
  7 H       -1.8170     1.8570     1.5440 H     1 <1>   0.0000 
  8 C       -0.3320     2.1190     0.0500 C.3   1 <1>   0.2800 
  9 H       -0.2030     2.4680    -0.9800 H     1 <1>   0.0000 
 10 H        0.2440     2.7600     0.7230 H     1 <1>   0.0000 
 11 O        0.1770     0.7540     0.1320 O.3   1 <1>  -0.5600 
 12 C       -0.9610    -0.1560     0.2040 C.3   1 <1>   0.2800 
 13 H       -1.0570    -0.5010     1.2390 H     1 <1>   0.0000 
 14 H       -0.7770    -1.0150    -0.4470 H     1 <1>   0.0000 
 15 C       -2.1120     0.6930    -0.2440 C.3   1 <1>   0.0000 
 16 H       -2.0490     0.8150    -1.3380 H     1 <1>   0.0000 
 17 C       -3.5510     0.5240     0.1470 C.3   1 <1>   0.2700 
 18 H       -4.1000    -0.1180    -0.5470 H     1 <1>   0.0000 
 19 H       -3.6590     0.1180     1.1580 H     1 <1>   0.0000 
@<TRIPOS>BOND
  1   1   2  1   
  2   2   3  1   
  3   2  17  1   
  4   3   4  1   
  5   3   5  1   
  6   3   6  1   
  7   6   7  1   
  8   6   8  1   
  9   6  15  1   
 10   8   9  1   
 11   8  10  1   
 12   8  11  1   
 13  11  12  1   
 14  12  13  1   
 15  12  14  1   
 16  12  15  1   
 17  15  16  1   
 18  15  17  1   
 19  17  18  1   
 20  17  19  1   
@<TRIPOS>SUBSTRUCTURE
  1 ****   6 GROUP 4 **** **** 0

# MOE 2022.02 (io_trps.svl 2020.11)

@<TRIPOS>MOLECULE
LCSOL045
30 30 1 0 0 
SMALL
USER_CHARGES


@<TRIPOS>ATOM
  1 H        0.4610     1.5810    -1.0490 H     1 <1>   0.3600 
  2 N       -0.1680     0.7940    -0.8780 N.3   1 <1>  -0.9000 
  3 C       -1.0520     1.0460     0.2520 C.3   1 <1>   0.2700 
  4 H       -0.5030     1.5020     1.0830 H     1 <1>   0.0000 
  5 H       -1.8810     1.7040    -0.0220 H     1 <1>   0.0000 
  6 C       -1.5250    -0.3460     0.6110 C.3   1 <1>   0.0000 
  7 H       -1.8940    -0.4100     1.6390 H     1 <1>   0.0000 
  8 H       -2.3350    -0.6600    -0.0600 H     1 <1>   0.0000 
  9 C       -0.3000    -1.2210     0.3840 C.3   1 <1>   0.0000 
 10 H       -0.5930    -2.1730    -0.0710 H     1 <1>   0.0000 
 11 H        0.1850    -1.4450     1.3410 H     1 <1>   0.0000 
 12 C        0.6130    -0.4100    -0.5450 C.3   1 <1>   0.2700 
 13 H        0.7930    -0.9770    -1.4670 H     1 <1>   0.0000 
 14 C        1.9730    -0.1100     0.1270 C.3   1 <1>   0.2300 
 15 H        2.4880    -1.0560     0.3130 H     1 <1>   0.0000 
 16 H        1.8080     0.3940     1.0840 H     1 <1>   0.0000 
 17 S        3.0230     0.9550    -0.9310 S.3   1 <1>  -0.4600 
 18 C        4.5510     1.1430     0.0980 C.3   1 <1>   0.2300 
 19 C        5.5110     2.0250    -0.7170 C.3   1 <1>   0.0000 
 20 H        5.7740     1.5630    -1.6760 H     1 <1>   0.0000 
 21 H        6.4490     2.1850    -0.1710 H     1 <1>   0.0000 
 22 H        5.0840     3.0140    -0.9190 H     1 <1>   0.0000 
 23 C        5.2120    -0.2170     0.3520 C.3   1 <1>   0.0000 
 24 H        4.6050    -0.8570     1.0010 H     1 <1>   0.0000 
 25 H        5.4020    -0.7570    -0.5820 H     1 <1>   0.0000 
 26 H        6.1780    -0.0880     0.8540 H     1 <1>   0.0000 
 27 C        4.2320     1.8430     1.4240 C.3   1 <1>   0.0000 
 28 H        3.7110     2.7940     1.2660 H     1 <1>   0.0000 
 29 H        5.1540     2.0650     1.9740 H     1 <1>   0.0000 
 30 H        3.6180     1.2210     2.0830 H     1 <1>   0.0000 
@<TRIPOS>BOND
  1   1   2  1   
  2   2   3  1   
  3   2  12  1   
  4   3   4  1   
  5   3   5  1   
  6   3   6  1   
  7   6   7  1   
  8   6   8  1   
  9   6   9  1   
 10   9  10  1   
 11   9  11  1   
 12   9  12  1   
 13  12  13  1   
 14  12  14  1   
 15  14  15  1   
 16  14  16  1   
 17  14  17  1   
 18  17  18  1   
 19  18  19  1   
 20  18  23  1   
 21  18  27  1   
 22  19  20  1   
 23  19  21  1   
 24  19  22  1   
 25  23  24  1   
 26  23  25  1   
 27  23  26  1   
 28  27  28  1   
 29  27  29  1   
 30  27  30  1   
@<TRIPOS>SUBSTRUCTURE
  1 ****  14 GROUP 4 **** **** 0

# MOE 2022.02 (io_trps.svl 2020.11)

@<TRIPOS>MOLECULE
LCSOL046
28 29 1 0 0 
SMALL
USER_CHARGES


@<TRIPOS>ATOM
  1 H        1.0200    -1.7010     1.2690 H     1 <1>   0.3600 
  2 N        0.5740    -2.0230     0.4050 N.3   1 <1>  -0.9900 
  3 H        0.7090    -3.0320     0.3780 H     1 <1>   0.3600 
  4 C        1.2530    -1.3940    -0.7320 C.3   1 <1>   0.2700 
  5 H        0.6930    -1.6710    -1.6330 H     1 <1>   0.0000 
  6 C        1.2300     0.1310    -0.5850 C.3   1 <1>   0.0000 
  7 H        0.3020     0.4510    -0.0940 H     1 <1>   0.0000 
  8 H        1.2070     0.6040    -1.5750 H     1 <1>   0.0000 
  9 C        2.4330     0.6730     0.1840 C.3   1 <1>   0.2800 
 10 H        3.1940     1.0600    -0.5040 H     1 <1>   0.0000 
 11 H        2.1230     1.5130     0.8150 H     1 <1>   0.0000 
 12 O        3.0090    -0.3230     1.0230 O.3   1 <1>  -0.5600 
 13 C        3.5980    -1.4050     0.2980 C.3   1 <1>   0.2800 
 14 C        5.0210    -1.0510    -0.1590 C.3   1 <1>   0.0000 
 15 H        5.0440    -0.4560    -1.0780 H     1 <1>   0.0000 
 16 H        5.5300    -0.4580     0.6120 H     1 <1>   0.0000 
 17 C        5.7150    -2.3950    -0.3310 C.3   1 <1>   0.0000 
 18 H        5.5680    -2.7720    -1.3500 H     1 <1>   0.0000 
 19 H        6.7930    -2.3170    -0.1610 H     1 <1>   0.0000 
 20 C        5.0450    -3.3340     0.6700 C.3   1 <1>   0.0000 
 21 H        4.6720    -4.2280     0.1560 H     1 <1>   0.0000 
 22 H        5.7470    -3.6690     1.4400 H     1 <1>   0.0000 
 23 C        3.8950    -2.5420     1.2880 C.3   1 <1>   0.0000 
 24 H        3.0260    -3.1760     1.4910 H     1 <1>   0.0000 
 25 H        4.2090    -2.1300     2.2570 H     1 <1>   0.0000 
 26 C        2.7000    -1.8770    -0.8710 C.3   1 <1>   0.0000 
 27 H        2.7340    -2.9670    -0.9900 H     1 <1>   0.0000 
 28 H        3.0890    -1.4710    -1.8150 H     1 <1>   0.0000 
@<TRIPOS>BOND
  1   1   2  1   
  2   2   3  1   
  3   2   4  1   
  4   4   5  1   
  5   4   6  1   
  6   4  26  1   
  7   6   7  1   
  8   6   8  1   
  9   6   9  1   
 10   9  10  1   
 11   9  11  1   
 12   9  12  1   
 13  12  13  1   
 14  13  14  1   
 15  13  23  1   
 16  13  26  1   
 17  14  15  1   
 18  14  16  1   
 19  14  17  1   
 20  17  18  1   
 21  17  19  1   
 22  17  20  1   
 23  20  21  1   
 24  20  22  1   
 25  20  23  1   
 26  23  24  1   
 27  23  25  1   
 28  26  27  1   
 29  26  28  1   
@<TRIPOS>SUBSTRUCTURE
  1 ****  13 GROUP 4 **** **** 0

# MOE 2022.02 (io_trps.svl 2020.11)

@<TRIPOS>MOLECULE
LCSOL047
27 28 1 0 0 
SMALL
USER_CHARGES


@<TRIPOS>ATOM
  1 H        9.1210    -1.7920    -0.0910 H     1 <1>   0.4000 
  2 N        8.2720    -2.3480    -0.2230 N.2   1 <1>  -0.8500 
  3 C        7.2120    -1.6080    -0.1050 C.2   1 <1>   0.4860 
  4 C        7.3290    -0.1520     0.1830 C.2   1 <1>  -0.1360 
  5 H        8.3090     0.2920     0.2860 H     1 <1>   0.1500 
  6 C        6.1960     0.5590     0.2970 C.2   1 <1>  -0.1780 
  7 H        6.2590     1.6220     0.4950 H     1 <1>   0.1500 
  8 C        4.8620    -0.0660     0.1500 C.ar  1 <1>   0.0280 
  9 C        3.6500     0.6450     0.2710 C.ar  1 <1>  -0.1440 
 10 C        3.6670     2.1200     0.5920 C.3   1 <1>   0.1440 
 11 H        4.3180     2.3190     1.4510 H     1 <1>   0.0000 
 12 H        4.0220     2.6880    -0.2750 H     1 <1>   0.0000 
 13 H        2.6860     2.5110     0.8730 H     1 <1>   0.0000 
 14 C        2.4310    -0.0450     0.0560 C.ar  1 <1>  -0.1440 
 15 C        1.1110     0.6780     0.1370 C.3   1 <1>   0.1440 
 16 H        1.1280     1.5730    -0.4950 H     1 <1>   0.0000 
 17 H        0.2690     0.0780    -0.2150 H     1 <1>   0.0000 
 18 H        0.9030     0.9640     1.1730 H     1 <1>   0.0000 
 19 C        2.4860    -1.4240    -0.2080 C.ar  1 <1>   0.1660 
 20 C        1.2510    -2.2540    -0.4170 C.3   1 <1>   0.1440 
 21 H        0.7200    -1.9280    -1.3170 H     1 <1>   0.0000 
 22 H        0.5880    -2.1830     0.4510 H     1 <1>   0.0000 
 23 H        1.5090    -3.3100    -0.5490 H     1 <1>   0.0000 
 24 N        3.6490    -2.1130    -0.3000 N.ar  1 <1>  -0.6200 
 25 C        4.8040    -1.4430    -0.1330 C.ar  1 <1>   0.4100 
 26 N        5.9840    -2.1730    -0.2490 N.pl3 1 <1>  -0.5500 
 27 H        5.8930    -3.1540    -0.4470 H     1 <1>   0.4000 
@<TRIPOS>BOND
  1   1   2  1   
  2   2   3  2   
  3   3   4  1   
  4   3  26  1   
  5   4   5  1   
  6   4   6  2   
  7   6   7  1   
  8   6   8  1   
  9   8   9  ar  
 10   8  25  ar  
 11   9  10  1   
 12   9  14  ar  
 13  10  11  1   
 14  10  12  1   
 15  10  13  1   
 16  14  15  1   
 17  14  19  ar  
 18  15  16  1   
 19  15  17  1   
 20  15  18  1   
 21  19  20  1   
 22  19  24  ar  
 23  20  21  1   
 24  20  22  1   
 25  20  23  1   
 26  24  25  ar  
 27  25  26  1   
 28  26  27  1   
@<TRIPOS>SUBSTRUCTURE
  1 ****   8 GROUP 4 **** **** 0

# MOE 2022.02 (io_trps.svl 2020.11)

@<TRIPOS>MOLECULE
LCSOL048
25 25 1 0 0 
SMALL
USER_CHARGES


@<TRIPOS>ATOM
  1 H       -4.0570     4.0460     1.6800 H     1 <1>   0.5000 
  2 O       -3.4880     4.7310     1.2700 O.3   1 <1>  -0.6500 
  3 C       -3.0250     4.1440     0.1480 C.2   1 <1>   0.6590 
  4 O       -3.3620     3.0060    -0.1380 O.2   1 <1>  -0.5700 
  5 C       -2.1030     5.0340    -0.6430 C.3   1 <1>   0.2040 
  6 H       -2.1100     6.0440    -0.2150 H     1 <1>   0.0000 
  7 H       -2.5160     5.1420    -1.6530 H     1 <1>   0.0000 
  8 C       -0.6930     4.5070    -0.7030 C.ar  1 <1>  -0.1440 
  9 C       -0.3410     3.5130    -1.6180 C.ar  1 <1>  -0.1500 
 10 H       -1.0810     3.1090    -2.3060 H     1 <1>   0.1500 
 11 C        0.9660     3.0170    -1.6530 C.ar  1 <1>  -0.1500 
 12 H        1.1990     2.2430    -2.3810 H     1 <1>   0.1500 
 13 C        1.9530     3.4970    -0.7790 C.ar  1 <1>   0.1170 
 14 N        3.2270     2.9170    -0.9130 N.am  1 <1>  -0.5470 
 15 H        3.3000     2.1720    -1.5970 H     1 <1>   0.3700 
 16 C        4.4380     3.1190    -0.3250 C.2   1 <1>   0.5690 
 17 O        5.3730     2.3880    -0.6650 O.2   1 <1>  -0.5700 
 18 C        4.6600     4.1930     0.6960 C.3   1 <1>   0.0610 
 19 H        5.7240     4.2310     0.9510 H     1 <1>   0.0000 
 20 H        4.3830     5.1690     0.2920 H     1 <1>   0.0000 
 21 H        4.1060     3.9640     1.6100 H     1 <1>   0.0000 
 22 C        1.5920     4.4780     0.1420 C.ar  1 <1>  -0.1500 
 23 H        2.2820     4.8860     0.8660 H     1 <1>   0.1500 
 24 C        0.2820     4.9780     0.1810 C.ar  1 <1>  -0.1500 
 25 H        0.0330     5.7400     0.9180 H     1 <1>   0.1500 
@<TRIPOS>BOND
  1   1   2  1   
  2   2   3  1   
  3   3   4  2   
  4   3   5  1   
  5   5   6  1   
  6   5   7  1   
  7   5   8  1   
  8   8   9  ar  
  9   8  24  ar  
 10   9  10  1   
 11   9  11  ar  
 12  11  12  1   
 13  11  13  ar  
 14  13  14  1   
 15  13  22  ar  
 16  14  15  1   
 17  14  16  am  
 18  16  17  2   
 19  16  18  1   
 20  18  19  1   
 21  18  20  1   
 22  18  21  1   
 23  22  23  1   
 24  22  24  ar  
 25  24  25  1   
@<TRIPOS>SUBSTRUCTURE
  1 ****  22 GROUP 4 **** **** 0

# MOE 2022.02 (io_trps.svl 2020.11)

@<TRIPOS>MOLECULE
LCSOL049
27 27 1 0 0 
SMALL
USER_CHARGES


@<TRIPOS>ATOM
  1 H        2.3270     2.1690    -1.5310 H     1 <1>   0.1500 
  2 C        1.3160     2.3950    -1.2030 C.ar  1 <1>  -0.1500 
  3 C        0.2470     2.2540    -2.0820 C.ar  1 <1>  -0.1500 
  4 H        0.4220     1.9200    -3.1020 H     1 <1>   0.1500 
  5 C       -1.0570     2.5460    -1.6620 C.ar  1 <1>  -0.1500 
  6 H       -1.8550     2.4300    -2.3910 H     1 <1>   0.1500 
  7 C       -1.3230     2.9850    -0.3530 C.ar  1 <1>  -0.1440 
  8 C       -2.7380     3.3120     0.1420 C.3   1 <1>   0.4240 
  9 O       -2.9880     2.6700     1.4200 O.3   1 <1>  -0.5600 
 10 C       -3.0500     1.2510     1.4100 C.3   1 <1>   0.2800 
 11 H       -3.0860     0.9100     2.4490 H     1 <1>   0.0000 
 12 H       -2.1710     0.8040     0.9370 H     1 <1>   0.0000 
 13 H       -3.9620     0.9050     0.9160 H     1 <1>   0.0000 
 14 C       -2.8120     4.8250     0.4550 C.3   1 <1>   0.0000 
 15 H       -2.1590     5.1010     1.2900 H     1 <1>   0.0000 
 16 H       -2.5300     5.4400    -0.4060 H     1 <1>   0.0000 
 17 H       -3.8250     5.1050     0.7670 H     1 <1>   0.0000 
 18 C       -3.9220     2.9520    -0.8340 C.3   1 <1>   0.2700 
 19 H       -4.8650     3.0240    -0.2760 H     1 <1>   0.0000 
 20 H       -3.8420     1.9010    -1.1370 H     1 <1>   0.0000 
 21 N       -4.0680     3.7560    -2.0570 N.3   1 <1>  -0.9900 
 22 H       -4.2430     4.7290    -1.8060 H     1 <1>   0.3600 
 23 H       -4.9000     3.4470    -2.5590 H     1 <1>   0.3600 
 24 C       -0.2200     3.1210     0.5070 C.ar  1 <1>   0.1900 
 25 F       -0.3900     3.5370     1.7710 F     1 <1>  -0.1900 
 26 C        1.0810     2.8310     0.0960 C.ar  1 <1>  -0.1500 
 27 H        1.9010     2.9510     0.7970 H     1 <1>   0.1500 
@<TRIPOS>BOND
  1   1   2  1   
  2   2   3  ar  
  3   2  26  ar  
  4   3   4  1   
  5   3   5  ar  
  6   5   6  1   
  7   5   7  ar  
  8   7   8  1   
  9   7  24  ar  
 10   8   9  1   
 11   8  14  1   
 12   8  18  1   
 13   9  10  1   
 14  10  11  1   
 15  10  12  1   
 16  10  13  1   
 17  14  15  1   
 18  14  16  1   
 19  14  17  1   
 20  18  19  1   
 21  18  20  1   
 22  18  21  1   
 23  21  22  1   
 24  21  23  1   
 25  24  25  1   
 26  24  26  ar  
 27  26  27  1   
@<TRIPOS>SUBSTRUCTURE
  1 ****   7 GROUP 4 **** **** 0

# MOE 2022.02 (io_trps.svl 2020.11)

@<TRIPOS>MOLECULE
LCSOL050
23 23 1 0 0 
SMALL
USER_CHARGES


@<TRIPOS>ATOM
  1 H        6.1660     2.0410    -1.1730 H     1 <1>   0.3600 
  2 N        5.4490     1.5900    -0.6050 N.3   1 <1>  -0.9900 
  3 H        5.7540     1.6790     0.3630 H     1 <1>   0.3600 
  4 C        4.1800     2.2860    -0.7860 C.3   1 <1>   0.2700 
  5 H        4.3250     3.3470    -0.5570 H     1 <1>   0.0000 
  6 H        3.8850     2.2170    -1.8390 H     1 <1>   0.0000 
  7 C        3.0900     1.6980     0.1130 C.3   1 <1>   0.0000 
  8 H        3.3980     1.7930     1.1640 H     1 <1>   0.0000 
  9 C        2.7870     0.2210    -0.1750 C.3   1 <1>   0.0000 
 10 H        2.8850    -0.0010    -1.2450 H     1 <1>   0.0000 
 11 H        3.4720    -0.4440     0.3620 H     1 <1>   0.0000 
 12 C        1.3370    -0.0010     0.2580 C.3   1 <1>   0.0000 
 13 H        1.2720    -0.6800     1.1140 H     1 <1>   0.0000 
 14 H        0.7670    -0.4520    -0.5620 H     1 <1>   0.0000 
 15 C        0.7790     1.3740     0.6120 C.3   1 <1>   0.0000 
 16 H       -0.2580     1.4910     0.2810 H     1 <1>   0.0000 
 17 H        0.7970     1.5080     1.7000 H     1 <1>   0.0000 
 18 C        1.7190     2.3650    -0.0730 C.3   1 <1>   0.0000 
 19 H        1.4700     2.4160    -1.1420 H     1 <1>   0.0000 
 20 C        1.6220     3.7610     0.5230 C.3   1 <1>   0.0000 
 21 H        1.9010     3.7650     1.5830 H     1 <1>   0.0000 
 22 H        2.2820     4.4590    -0.0020 H     1 <1>   0.0000 
 23 H        0.6000     4.1440     0.4430 H     1 <1>   0.0000 
@<TRIPOS>BOND
  1   1   2  1   
  2   2   3  1   
  3   2   4  1   
  4   4   5  1   
  5   4   6  1   
  6   4   7  1   
  7   7   8  1   
  8   7   9  1   
  9   7  18  1   
 10   9  10  1   
 11   9  11  1   
 12   9  12  1   
 13  12  13  1   
 14  12  14  1   
 15  12  15  1   
 16  15  16  1   
 17  15  17  1   
 18  15  18  1   
 19  18  19  1   
 20  18  20  1   
 21  20  21  1   
 22  20  22  1   
 23  20  23  1   
@<TRIPOS>SUBSTRUCTURE
  1 ****   7 GROUP 4 **** **** 0

# MOE 2022.02 (io_trps.svl 2020.11)

@<TRIPOS>MOLECULE
LCSOL051
24 25 1 0 0 
SMALL
USER_CHARGES


@<TRIPOS>ATOM
  1 H       -1.3610     6.2620     0.9170 H     1 <1>   0.1500 
  2 C       -1.3480     5.2270     0.5810 C.ar  1 <1>  -0.1500 
  3 C       -2.5340     4.4910     0.5490 C.ar  1 <1>  -0.1500 
  4 H       -3.4630     4.9600     0.8710 H     1 <1>   0.1500 
  5 C       -2.5280     3.1670     0.0970 C.ar  1 <1>   0.0730 
  6 C       -3.7480     2.4150     0.0570 C.1   1 <1>   0.4840 
  7 N       -4.7400     1.8130     0.0320 N.1   1 <1>  -0.5570 
  8 C       -1.3290     2.5800    -0.3160 C.ar  1 <1>  -0.1500 
  9 H       -1.3170     1.5500    -0.6750 H     1 <1>   0.1500 
 10 C       -0.1340     3.3110    -0.2690 C.ar  1 <1>   0.0860 
 11 C        1.1130     2.6400    -0.7260 C.2   1 <1>   0.5440 
 12 O        1.0470     1.7600    -1.5770 O.2   1 <1>  -0.5700 
 13 N        2.2870     3.0460    -0.1190 N.am  1 <1>  -0.5790 
 14 H        2.2650     3.7390     0.6160 H     1 <1>   0.3700 
 15 C        3.5540     2.4970    -0.4860 C.3   1 <1>   0.0490 
 16 H        3.6800     2.3970    -1.5630 H     1 <1>   0.1000 
 17 C        4.2000     1.4430     0.3690 C.3   1 <1>  -0.2000 
 18 H        4.7190     0.6370    -0.1380 H     1 <1>   0.1000 
 19 H        3.6960     1.1400     1.2790 H     1 <1>   0.1000 
 20 C        4.7900     2.8200     0.3070 C.3   1 <1>  -0.2000 
 21 H        5.7190     2.9490    -0.2380 H     1 <1>   0.1000 
 22 H        4.7040     3.4460     1.1870 H     1 <1>   0.1000 
 23 C       -0.1490     4.6410     0.1690 C.ar  1 <1>  -0.1500 
 24 H        0.7540     5.2470     0.1670 H     1 <1>   0.1500 
@<TRIPOS>BOND
  1   1   2  1   
  2   2   3  ar  
  3   2  23  ar  
  4   3   4  1   
  5   3   5  ar  
  6   5   6  1   
  7   5   8  ar  
  8   6   7  3   
  9   8   9  1   
 10   8  10  ar  
 11  10  11  1   
 12  10  23  ar  
 13  11  12  2   
 14  11  13  am  
 15  13  14  1   
 16  13  15  1   
 17  15  16  1   
 18  15  17  1   
 19  15  20  1   
 20  17  18  1   
 21  17  19  1   
 22  17  20  1   
 23  20  21  1   
 24  20  22  1   
 25  23  24  1   
@<TRIPOS>SUBSTRUCTURE
  1 ****  10 GROUP 4 **** **** 0

# MOE 2022.02 (io_trps.svl 2020.11)

@<TRIPOS>MOLECULE
LCSOL052
22 22 1 0 0 
SMALL
USER_CHARGES


@<TRIPOS>ATOM
  1 H        6.1020     0.5750     0.0130 H     1 <1>   0.3700 
  2 N        5.1770     0.8240     0.3390 N.am  1 <1>  -0.8000 
  3 H        4.8430     0.4430     1.2130 H     1 <1>   0.3700 
  4 C        4.4350     1.6700    -0.4400 C.2   1 <1>   0.5770 
  5 O        4.9150     2.0950    -1.4900 O.2   1 <1>  -0.5700 
  6 C        3.0310     2.0000     0.1300 C.3   1 <1>   0.0530 
  7 H        3.1280     2.6370     1.0220 H     1 <1>   0.0000 
  8 C        2.0530     0.8200     0.3760 C.3   1 <1>   0.0000 
  9 H        2.2570    -0.0580    -0.2490 H     1 <1>   0.0000 
 10 H        1.9780     0.4880     1.4160 H     1 <1>   0.0000 
 11 C        0.8920     1.7170    -0.1360 C.3   1 <1>   0.0000 
 12 C       -0.0650     1.0080    -1.0880 C.3   1 <1>   0.0000 
 13 H        0.4730     0.4790    -1.8820 H     1 <1>   0.0000 
 14 H       -0.6740     0.2710    -0.5530 H     1 <1>   0.0000 
 15 H       -0.7420     1.7240    -1.5660 H     1 <1>   0.0000 
 16 C        0.1370     2.4550     0.9690 C.3   1 <1>   0.0000 
 17 H       -0.5360     3.2080     0.5440 H     1 <1>   0.0000 
 18 H       -0.4670     1.7570     1.5600 H     1 <1>   0.0000 
 19 H        0.8150     2.9700     1.6580 H     1 <1>   0.0000 
 20 C        1.9730     2.5750    -0.8500 C.3   1 <1>   0.0000 
 21 H        1.8340     3.6600    -0.7990 H     1 <1>   0.0000 
 22 H        2.1470     2.3030    -1.8990 H     1 <1>   0.0000 
@<TRIPOS>BOND
  1   1   2  1   
  2   2   3  1   
  3   2   4  am  
  4   4   5  2   
  5   4   6  1   
  6   6   7  1   
  7   6   8  1   
  8   6  20  1   
  9   8   9  1   
 10   8  10  1   
 11   8  11  1   
 12  11  12  1   
 13  11  16  1   
 14  11  20  1   
 15  12  13  1   
 16  12  14  1   
 17  12  15  1   
 18  16  17  1   
 19  16  18  1   
 20  16  19  1   
 21  20  21  1   
 22  20  22  1   
@<TRIPOS>SUBSTRUCTURE
  1 ****   6 GROUP 4 **** **** 0

# MOE 2022.02 (io_trps.svl 2020.11)

@<TRIPOS>MOLECULE
LCSOL053
24 25 1 0 0 
SMALL
USER_CHARGES


@<TRIPOS>ATOM
  1 H        2.0180     2.1980     0.8670 H     1 <1>   0.3600 
  2 N        1.1120     2.6460     0.7430 N.3   1 <1>  -0.7790 
  3 C       -0.0530     1.7870     1.0320 C.3   1 <1>   0.2100 
  4 H       -0.5080     1.9580     2.0120 H     1 <1>   0.0000 
  5 H        0.1640     0.7160     0.9340 H     1 <1>   0.0000 
  6 C       -0.7750     2.4210    -0.1920 C.3   1 <1>   0.0000 
  7 C        0.6660     2.7690    -0.6590 C.3   1 <1>   0.2100 
  8 H        1.1270     2.0300    -1.3260 H     1 <1>   0.0000 
  9 H        0.8080     3.7620    -1.0950 H     1 <1>   0.0000 
 10 C       -1.5000     1.4380    -1.1160 C.3   1 <1>   0.0000 
 11 H       -0.8870     0.5480    -1.3020 H     1 <1>   0.0000 
 12 H       -1.6820     1.9070    -2.0910 H     1 <1>   0.0000 
 13 C       -2.8290     1.0140    -0.4950 C.3   1 <1>   0.0000 
 14 H       -3.3580     0.3430    -1.1810 H     1 <1>   0.0000 
 15 H       -2.6440     0.4520     0.4280 H     1 <1>   0.0000 
 16 C       -3.7080     2.2230    -0.1820 C.3   1 <1>   0.0000 
 17 H       -4.0040     2.7140    -1.1170 H     1 <1>   0.0000 
 18 H       -4.6290     1.8910     0.3110 H     1 <1>   0.0000 
 19 C       -2.9810     3.2250     0.7120 C.3   1 <1>   0.0000 
 20 H       -2.8150     2.7750     1.6980 H     1 <1>   0.0000 
 21 H       -3.6130     4.1070     0.8650 H     1 <1>   0.0000 
 22 C       -1.6450     3.6530     0.1060 C.3   1 <1>   0.0000 
 23 H       -1.8270     4.2110    -0.8210 H     1 <1>   0.0000 
 24 H       -1.1400     4.3410     0.7940 H     1 <1>   0.0000 
@<TRIPOS>BOND
  1   1   2  1   
  2   2   3  1   
  3   2   7  1   
  4   3   4  1   
  5   3   5  1   
  6   3   6  1   
  7   6   7  1   
  8   6  10  1   
  9   6  22  1   
 10   7   8  1   
 11   7   9  1   
 12  10  11  1   
 13  10  12  1   
 14  10  13  1   
 15  13  14  1   
 16  13  15  1   
 17  13  16  1   
 18  16  17  1   
 19  16  18  1   
 20  16  19  1   
 21  19  20  1   
 22  19  21  1   
 23  19  22  1   
 24  22  23  1   
 25  22  24  1   
@<TRIPOS>SUBSTRUCTURE
  1 ****   6 GROUP 4 **** **** 0

# MOE 2022.02 (io_trps.svl 2020.11)

@<TRIPOS>MOLECULE
LCSOL054
35 36 1 0 0 
SMALL
USER_CHARGES


@<TRIPOS>ATOM
  1 H        0.4110     2.6740    -2.5290 H     1 <1>   0.1500 
  2 C        0.0090     2.1260    -1.6800 C.ar  1 <1>  -0.1500 
  3 C       -1.3560     2.2210    -1.3820 C.ar  1 <1>  -0.1500 
  4 H       -1.9610     2.8620    -2.0170 H     1 <1>   0.1500 
  5 C       -1.9170     1.5220    -0.2990 C.ar  1 <1>  -0.1440 
  6 C       -3.4280     1.6570     0.0650 C.3   1 <1>   0.1440 
  7 C       -3.4820     2.8690     1.0550 C.3   1 <1>   0.2700 
  8 H       -3.1050     3.7630     0.5410 H     1 <1>   0.0000 
  9 H       -2.7970     2.6980     1.8960 H     1 <1>   0.0000 
 10 N       -4.7860     3.2140     1.6160 N.3   1 <1>  -0.9900 
 11 H       -4.7170     4.1250     2.0720 H     1 <1>   0.3600 
 12 H       -5.0160     2.5640     2.3670 H     1 <1>   0.3600 
 13 C       -3.9500     0.3440     0.7210 C.3   1 <1>   0.0000 
 14 H       -3.5430    -0.5070     0.1560 H     1 <1>   0.0000 
 15 H       -3.5870     0.2440     1.7510 H     1 <1>   0.0000 
 16 C       -5.4650     0.1730     0.7220 C.3   1 <1>   0.2800 
 17 H       -5.9670     0.8410     1.4280 H     1 <1>   0.0000 
 18 H       -5.7120    -0.8470     1.0350 H     1 <1>   0.0000 
 19 O       -6.0030     0.3590    -0.5800 O.3   1 <1>  -0.5600 
 20 C       -5.7720     1.6840    -1.0440 C.3   1 <1>   0.2800 
 21 H       -6.2640     1.7790    -2.0180 H     1 <1>   0.0000 
 22 H       -6.2550     2.4060    -0.3780 H     1 <1>   0.0000 
 23 C       -4.2800     1.9370    -1.2080 C.3   1 <1>   0.0000 
 24 H       -3.9340     1.2690    -2.0100 H     1 <1>   0.0000 
 25 H       -4.1360     2.9640    -1.5640 H     1 <1>   0.0000 
 26 C       -1.0380     0.7530     0.4870 C.ar  1 <1>  -0.1500 
 27 H       -1.3950     0.2120     1.3600 H     1 <1>   0.1500 
 28 C        0.3280     0.6590     0.1880 C.ar  1 <1>  -0.1500 
 29 H        0.9480     0.0440     0.8330 H     1 <1>   0.1500 
 30 C        0.8580     1.3440    -0.9010 C.ar  1 <1>   0.0820 
 31 O        2.1660     1.3420    -1.2990 O.3   1 <1>  -0.3630 
 32 C        3.0670     0.5480    -0.5370 C.3   1 <1>   0.2800 
 33 H        2.7880    -0.5110    -0.5740 H     1 <1>   0.0000 
 34 H        4.0600     0.6450    -0.9860 H     1 <1>   0.0000 
 35 H        3.1320     0.9050     0.4960 H     1 <1>   0.0000 
@<TRIPOS>BOND
  1   1   2  1   
  2   2   3  ar  
  3   2  30  ar  
  4   3   4  1   
  5   3   5  ar  
  6   5   6  1   
  7   5  26  ar  
  8   6   7  1   
  9   6  13  1   
 10   6  23  1   
 11   7   8  1   
 12   7   9  1   
 13   7  10  1   
 14  10  11  1   
 15  10  12  1   
 16  13  14  1   
 17  13  15  1   
 18  13  16  1   
 19  16  17  1   
 20  16  18  1   
 21  16  19  1   
 22  19  20  1   
 23  20  21  1   
 24  20  22  1   
 25  20  23  1   
 26  23  24  1   
 27  23  25  1   
 28  26  27  1   
 29  26  28  ar  
 30  28  29  1   
 31  28  30  ar  
 32  30  31  1   
 33  31  32  1   
 34  32  33  1   
 35  32  34  1   
 36  32  35  1   
@<TRIPOS>SUBSTRUCTURE
  1 ****   5 GROUP 4 **** **** 0

# MOE 2022.02 (io_trps.svl 2020.11)

@<TRIPOS>MOLECULE
LCSOL055
22 23 1 0 0 
SMALL
USER_CHARGES


@<TRIPOS>ATOM
  1 H        0.1930    -3.4120     0.6390 H     1 <1>   0.1500 
  2 C       -0.3110    -2.4820     0.3920 C.ar  1 <1>  -0.1500 
  3 C       -1.7060    -2.4540     0.3020 C.ar  1 <1>  -0.1500 
  4 H       -2.2700    -3.3680     0.4790 H     1 <1>   0.1500 
  5 C       -2.3720    -1.2620    -0.0130 C.ar  1 <1>   0.0860 
  6 C       -3.8530    -1.2730    -0.1040 C.2   1 <1>   0.3030 
  7 N       -4.5500    -2.3710    -0.0500 N.2   1 <1>  -0.6960 
  8 C       -5.9580    -1.9620    -0.2210 C.3   1 <1>   0.2460 
  9 H       -6.2620    -2.1340    -1.2600 H     1 <1>   0.0000 
 10 H       -6.6090    -2.5490     0.4330 H     1 <1>   0.0000 
 11 C       -6.0030    -0.4910     0.1380 C.3   1 <1>   0.0000 
 12 H       -6.8230     0.0430    -0.3500 H     1 <1>   0.0000 
 13 H       -6.1200    -0.3750     1.2230 H     1 <1>   0.0000 
 14 C       -4.6390    -0.0020    -0.2880 C.3   1 <1>   0.0610 
 15 H       -4.2850     0.8160     0.3430 H     1 <1>   0.0000 
 16 H       -4.6200     0.2880    -1.3430 H     1 <1>   0.0000 
 17 C       -1.6310    -0.0980    -0.2450 C.ar  1 <1>  -0.1500 
 18 H       -2.1120     0.8400    -0.5060 H     1 <1>   0.1500 
 19 C       -0.2350    -0.1270    -0.1540 C.ar  1 <1>  -0.1500 
 20 H        0.3360     0.7800    -0.3350 H     1 <1>   0.1500 
 21 C        0.4180    -1.3170     0.1650 C.ar  1 <1>   0.1770 
 22 CL       2.1340    -1.3470     0.2760 Cl    1 <1>  -0.1770 
@<TRIPOS>BOND
  1   1   2  1   
  2   2   3  ar  
  3   2  21  ar  
  4   3   4  1   
  5   3   5  ar  
  6   5   6  1   
  7   5  17  ar  
  8   6   7  2   
  9   6  14  1   
 10   7   8  1   
 11   8   9  1   
 12   8  10  1   
 13   8  11  1   
 14  11  12  1   
 15  11  13  1   
 16  11  14  1   
 17  14  15  1   
 18  14  16  1   
 19  17  18  1   
 20  17  19  ar  
 21  19  20  1   
 22  19  21  ar  
 23  21  22  1   
@<TRIPOS>SUBSTRUCTURE
  1 ****   5 GROUP 4 **** **** 0

# MOE 2022.02 (io_trps.svl 2020.11)

@<TRIPOS>MOLECULE
LCSOL056
24 24 1 0 0 
SMALL
USER_CHARGES


@<TRIPOS>ATOM
  1 H        7.0380    -1.9080    -1.6700 H     1 <1>   0.5000 
  2 O        6.5230    -1.6830    -0.8660 O.3   1 <1>  -0.6500 
  3 C        5.3190    -2.2530    -1.0850 C.2   1 <1>   0.6590 
  4 O        5.1380    -2.8760    -2.1210 O.2   1 <1>  -0.5700 
  5 C        4.3300    -2.0900     0.0800 C.3   1 <1>   0.2040 
  6 C        2.8750    -2.1050    -0.4310 C.ar  1 <1>  -0.1440 
  7 C        2.4760    -1.1910    -1.4290 C.ar  1 <1>  -0.1500 
  8 H        3.1930    -0.4880    -1.8530 H     1 <1>   0.1500 
  9 C        1.1640    -1.1620    -1.9100 C.ar  1 <1>  -0.1500 
 10 H        0.8860    -0.4510    -2.6840 H     1 <1>   0.1500 
 11 C        0.2170    -2.0460    -1.4030 C.ar  1 <1>  -0.1500 
 12 H       -0.8020    -2.0230    -1.7790 H     1 <1>   0.1500 
 13 C        0.5890    -2.9540    -0.4170 C.ar  1 <1>   0.1770 
 14 CL      -0.5810    -4.0480     0.2160 Cl    1 <1>  -0.1770 
 15 C        1.9000    -2.9870     0.0670 C.ar  1 <1>  -0.1500 
 16 H        2.1390    -3.7140     0.8380 H     1 <1>   0.1500 
 17 C        4.6640    -3.2360     1.0580 C.3   1 <1>   0.0000 
 18 H        4.4960    -4.2170     0.5980 H     1 <1>   0.0000 
 19 H        4.0630    -3.1780     1.9730 H     1 <1>   0.0000 
 20 H        5.7180    -3.2050     1.3600 H     1 <1>   0.0000 
 21 C        4.5610    -0.7530     0.8170 C.3   1 <1>   0.0000 
 22 H        4.5130     0.1030     0.1340 H     1 <1>   0.0000 
 23 H        5.5450    -0.7200     1.2980 H     1 <1>   0.0000 
 24 H        3.8100    -0.5960     1.6010 H     1 <1>   0.0000 
@<TRIPOS>BOND
  1   1   2  1   
  2   2   3  1   
  3   3   4  2   
  4   3   5  1   
  5   5   6  1   
  6   5  17  1   
  7   5  21  1   
  8   6   7  ar  
  9   6  15  ar  
 10   7   8  1   
 11   7   9  ar  
 12   9  10  1   
 13   9  11  ar  
 14  11  12  1   
 15  11  13  ar  
 16  13  14  1   
 17  13  15  ar  
 18  15  16  1   
 19  17  18  1   
 20  17  19  1   
 21  17  20  1   
 22  21  22  1   
 23  21  23  1   
 24  21  24  1   
@<TRIPOS>SUBSTRUCTURE
  1 ****   6 GROUP 4 **** **** 0

# MOE 2022.02 (io_trps.svl 2020.11)

@<TRIPOS>MOLECULE
LCSOL057
21 21 1 0 0 
SMALL
USER_CHARGES


@<TRIPOS>ATOM
  1 H        7.4400     1.6270     0.6560 H     1 <1>   0.3700 
  2 N        6.5290     1.8500     1.0390 N.am  1 <1>  -0.8000 
  3 H        6.4610     2.0790     2.0210 H     1 <1>   0.3700 
  4 C        5.4600     1.8210     0.1840 C.2   1 <1>   0.5770 
  5 O        5.6490     1.5270    -0.9950 O.2   1 <1>  -0.5700 
  6 C        4.1000     2.1630     0.8190 C.3   1 <1>   0.0530 
  7 H        4.1600     2.2290     1.9160 H     1 <1>   0.0000 
  8 C        2.8760     1.3280     0.3770 C.3   1 <1>   0.3070 
  9 H        2.9430     0.8820    -0.6200 H     1 <1>   0.0000 
 10 H        2.5330     0.5790     1.0950 H     1 <1>   0.0000 
 11 N        2.0490     2.5770     0.4000 N.am  1 <1>  -0.7520 
 12 S        0.6560     2.8480    -0.5190 S.o2  1 <1>   1.3330 
 13 O        0.2640     4.2270    -0.3240 O.2   1 <1>  -0.6500 
 14 O        0.8770     2.3040    -1.8410 O.2   1 <1>  -0.6500 
 15 C       -0.5110     1.8100     0.3300 C.3   1 <1>   0.1050 
 16 H       -1.4790     1.9180    -0.1650 H     1 <1>   0.0000 
 17 H       -0.5870     2.1370     1.3690 H     1 <1>   0.0000 
 18 H       -0.1770     0.7730     0.2680 H     1 <1>   0.0000 
 19 C        3.3180     3.3550     0.2260 C.3   1 <1>   0.3070 
 20 H        3.5300     3.5830    -0.8240 H     1 <1>   0.0000 
 21 H        3.3370     4.2730     0.8170 H     1 <1>   0.0000 
@<TRIPOS>BOND
  1   1   2  1   
  2   2   3  1   
  3   2   4  am  
  4   4   5  2   
  5   4   6  1   
  6   6   7  1   
  7   6   8  1   
  8   6  19  1   
  9   8   9  1   
 10   8  10  1   
 11   8  11  1   
 12  11  12  am  
 13  11  19  1   
 14  12  13  2   
 15  12  14  2   
 16  12  15  1   
 17  15  16  1   
 18  15  17  1   
 19  15  18  1   
 20  19  20  1   
 21  19  21  1   
@<TRIPOS>SUBSTRUCTURE
  1 ****  11 GROUP 4 **** **** 0

# MOE 2022.02 (io_trps.svl 2020.11)

@<TRIPOS>MOLECULE
LCSOL058
18 18 1 0 0 
SMALL
USER_CHARGES


@<TRIPOS>ATOM
  1 H        5.9610     0.3520     0.5700 H     1 <1>   0.5000 
  2 O        5.0430     0.1720     0.2820 O.3   1 <1>  -0.6500 
  3 C        4.3370     1.2120     0.7650 C.2   1 <1>   0.7060 
  4 O        4.8940     2.1140     1.3680 O.2   1 <1>  -0.5700 
  5 C        2.8840     1.1260     0.4530 C.2   1 <1>   0.1150 
  6 C        2.2060     2.2300     0.0580 C.2   1 <1>  -0.0610 
  7 C        2.8590     3.5630    -0.2030 C.3   1 <1>   0.1380 
  8 H        3.8940     3.4700    -0.5450 H     1 <1>   0.0000 
  9 H        2.8310     4.1810     0.7000 H     1 <1>   0.0000 
 10 H        2.3230     4.0990    -0.9950 H     1 <1>   0.0000 
 11 O        0.8460     2.2850    -0.2040 O.3   1 <1>  -0.3570 
 12 C        0.0480     1.2160     0.3080 C.3   1 <1>   0.2800 
 13 H       -0.9630     1.3640    -0.0880 H     1 <1>   0.0000 
 14 H       -0.0260     1.3000     1.4000 H     1 <1>   0.0000 
 15 C        0.5620    -0.1360    -0.1450 C.3   1 <1>   0.2300 
 16 H       -0.1350    -0.9310     0.1330 H     1 <1>   0.0000 
 17 H        0.7100    -0.1590    -1.2300 H     1 <1>   0.0000 
 18 S        2.1490    -0.4390     0.6660 S.3   1 <1>  -0.3310 
@<TRIPOS>BOND
  1   1   2  1   
  2   2   3  1   
  3   3   4  2   
  4   3   5  1   
  5   5   6  2   
  6   5  18  1   
  7   6   7  1   
  8   6  11  1   
  9   7   8  1   
 10   7   9  1   
 11   7  10  1   
 12  11  12  1   
 13  12  13  1   
 14  12  14  1   
 15  12  15  1   
 16  15  16  1   
 17  15  17  1   
 18  15  18  1   
@<TRIPOS>SUBSTRUCTURE
  1 ****   5 GROUP 4 **** **** 0

# MOE 2022.02 (io_trps.svl 2020.11)

@<TRIPOS>MOLECULE
LCSOL059
31 34 1 0 0 
SMALL
USER_CHARGES


@<TRIPOS>ATOM
  1 H        7.0180    -3.1230     0.9100 H     1 <1>   0.1500 
  2 C        6.1920    -3.4950     0.3190 C.2   1 <1>  -0.0100 
  3 O        6.4860    -4.5250    -0.5130 O.3   1 <1>  -0.2800 
  4 C        5.3420    -4.8280    -1.1780 C.2   1 <1>  -0.0100 
  5 H        5.4200    -5.6250    -1.9050 H     1 <1>   0.1500 
  6 C        4.2950    -4.0280    -0.7630 C.2   1 <1>  -0.0860 
  7 C        2.9550    -4.1150    -1.3190 C.2   1 <1>   0.7160 
  8 O        2.7870    -4.4320    -2.4950 O.2   1 <1>  -0.5700 
  9 N        1.8990    -3.8370    -0.5010 N.am  1 <1>  -0.6600 
 10 C        1.7610    -3.5870     0.9270 C.3   1 <1>   0.4440 
 11 H        2.6590    -3.6820     1.5340 H     1 <1>   0.0000 
 12 C        0.6710    -4.5900     1.2440 C.ar  1 <1>  -0.1440 
 13 C        0.3680    -5.3010     2.3840 C.ar  1 <1>  -0.1500 
 14 H        0.9660    -5.2210     3.2840 H     1 <1>   0.1500 
 15 C       -0.7510    -6.1380     2.3340 C.ar  1 <1>  -0.1500 
 16 H       -1.0250    -6.7220     3.2100 H     1 <1>   0.1500 
 17 C       -1.5350    -6.2410     1.1650 C.ar  1 <1>  -0.1500 
 18 H       -2.4000    -6.9020     1.1620 H     1 <1>   0.1500 
 19 C       -1.2210    -5.5110     0.0150 C.ar  1 <1>  -0.1500 
 20 H       -1.8260    -5.5900    -0.8810 H     1 <1>   0.1500 
 21 C       -0.1140    -4.6950     0.0730 C.ar  1 <1>  -0.1440 
 22 C        0.5130    -3.7530    -0.9320 C.3   1 <1>   0.4440 
 23 H        0.3290    -3.9750    -1.9840 H     1 <1>   0.0000 
 24 C        0.2000    -2.3210    -0.4420 C.3   1 <1>   0.0000 
 25 H        0.5390    -1.5750    -1.1700 H     1 <1>   0.0000 
 26 H       -0.8630    -2.1550    -0.2380 H     1 <1>   0.0000 
 27 C        1.0730    -2.2060     0.8610 C.3   1 <1>   0.0000 
 28 H        0.4620    -1.9820     1.7420 H     1 <1>   0.0000 
 29 H        1.8100    -1.4050     0.7320 H     1 <1>   0.0000 
 30 C        4.8690    -3.1410     0.1940 C.2   1 <1>  -0.1500 
 31 H        4.3910    -2.3250     0.7160 H     1 <1>   0.1500 
@<TRIPOS>BOND
  1   1   2  1   
  2   2   3  1   
  3   2  30  2   
  4   3   4  1   
  5   4   5  1   
  6   4   6  2   
  7   6   7  1   
  8   6  30  1   
  9   7   8  2   
 10   7   9  am  
 11   9  10  1   
 12   9  22  1   
 13  10  11  1   
 14  10  12  1   
 15  10  27  1   
 16  12  13  ar  
 17  12  21  ar  
 18  13  14  1   
 19  13  15  ar  
 20  15  16  1   
 21  15  17  ar  
 22  17  18  1   
 23  17  19  ar  
 24  19  20  1   
 25  19  21  ar  
 26  21  22  1   
 27  22  23  1   
 28  22  24  1   
 29  24  25  1   
 30  24  26  1   
 31  24  27  1   
 32  27  28  1   
 33  27  29  1   
 34  30  31  1   
@<TRIPOS>SUBSTRUCTURE
  1 ****   9 GROUP 4 **** **** 0

# MOE 2022.02 (io_trps.svl 2020.11)

@<TRIPOS>MOLECULE
LCSOL060
23 24 1 0 0 
SMALL
USER_CHARGES


@<TRIPOS>ATOM
  1 H       -0.3070     2.8860     0.6030 H     1 <1>   0.1500 
  2 C       -0.7850     1.9330     0.4000 C.ar  1 <1>  -0.1500 
  3 C       -0.0380     0.7820     0.1540 C.ar  1 <1>   0.0820 
  4 O        1.3290     0.7010     0.1340 O.3   1 <1>  -0.3630 
  5 C        2.0480     1.9080     0.3530 C.3   1 <1>   0.2800 
  6 H        3.1160     1.6770     0.2890 H     1 <1>   0.0000 
  7 H        1.8220     2.6490    -0.4200 H     1 <1>   0.0000 
  8 H        1.8540     2.3070     1.3540 H     1 <1>   0.0000 
  9 C       -0.6910    -0.4310    -0.1010 C.ar  1 <1>  -0.1500 
 10 H       -0.1090    -1.3290    -0.2910 H     1 <1>   0.1500 
 11 C       -2.0980    -0.4880    -0.1130 C.ar  1 <1>   0.0000 
 12 C       -3.0400    -1.5300    -0.3340 C.2   1 <1>  -0.1500 
 13 H       -2.8160    -2.5650    -0.5530 H     1 <1>   0.1500 
 14 C       -4.3000    -0.9880    -0.2190 C.2   1 <1>  -0.3020 
 15 H       -5.2760    -1.4450    -0.3160 H     1 <1>   0.1500 
 16 N       -4.1580     0.3450     0.0630 N.pl3 1 <1>   0.0480 
 17 C       -5.2550     1.2660     0.2580 C.3   1 <1>   0.2560 
 18 H       -5.1940     1.6670     1.2730 H     1 <1>   0.0000 
 19 H       -5.1710     2.0670    -0.4810 H     1 <1>   0.0000 
 20 H       -6.2040     0.7400     0.1250 H     1 <1>   0.0000 
 21 C       -2.8220     0.6800     0.1350 C.ar  1 <1>  -0.1520 
 22 C       -2.1870     1.9030     0.3950 C.ar  1 <1>  -0.1500 
 23 H       -2.7550     2.8070     0.5870 H     1 <1>   0.1500 
@<TRIPOS>BOND
  1   1   2  1   
  2   2   3  ar  
  3   2  22  ar  
  4   3   4  1   
  5   3   9  ar  
  6   4   5  1   
  7   5   6  1   
  8   5   7  1   
  9   5   8  1   
 10   9  10  1   
 11   9  11  ar  
 12  11  12  1   
 13  11  21  ar  
 14  12  13  1   
 15  12  14  2   
 16  14  15  1   
 17  14  16  1   
 18  16  17  1   
 19  16  21  1   
 20  17  18  1   
 21  17  19  1   
 22  17  20  1   
 23  21  22  ar  
 24  22  23  1   
@<TRIPOS>SUBSTRUCTURE
  1 ****  21 GROUP 4 **** **** 0

# MOE 2022.02 (io_trps.svl 2020.11)

@<TRIPOS>MOLECULE
LCSOL061
20 20 1 0 0 
SMALL
USER_CHARGES


@<TRIPOS>ATOM
  1 H        6.2210    -2.0740     0.6760 H     1 <1>   0.5000 
  2 O        5.2720    -1.8360     0.7270 O.3   1 <1>  -0.6500 
  3 C        4.6550    -2.7320    -0.0610 C.2   1 <1>   0.6340 
  4 O        5.2700    -3.6100    -0.6360 O.2   1 <1>  -0.5700 
  5 C        3.1890    -2.5820    -0.0430 C.ar  1 <1>   0.0860 
  6 C        2.4680    -3.7680    -0.0020 C.ar  1 <1>   0.1600 
  7 H        2.9660    -4.7350    -0.0120 H     1 <1>   0.1500 
  8 N        1.1200    -3.8310     0.0680 N.ar  1 <1>  -0.6200 
  9 C        0.4410    -2.6560     0.1080 C.ar  1 <1>   0.1660 
 10 C       -1.0520    -2.7930     0.2150 C.3   1 <1>   0.1440 
 11 H       -1.4160    -2.3350     1.1390 H     1 <1>   0.0000 
 12 H       -1.5440    -2.3340    -0.6480 H     1 <1>   0.0000 
 13 H       -1.3420    -3.8490     0.2340 H     1 <1>   0.0000 
 14 C        1.0870    -1.4090     0.0510 C.ar  1 <1>   0.1110 
 15 BR       0.0550     0.1950     0.1480 Br    1 <1>  -0.1110 
 16 C        2.4940    -1.3580    -0.0640 C.ar  1 <1>  -0.1440 
 17 C        3.2310    -0.0500    -0.1800 C.3   1 <1>   0.1440 
 18 H        4.1720    -0.1640    -0.7280 H     1 <1>   0.0000 
 19 H        3.4410     0.3560     0.8150 H     1 <1>   0.0000 
 20 H        2.6670     0.6870    -0.7580 H     1 <1>   0.0000 
@<TRIPOS>BOND
  1   1   2  1   
  2   2   3  1   
  3   3   4  2   
  4   3   5  1   
  5   5   6  ar  
  6   5  16  ar  
  7   6   7  1   
  8   6   8  ar  
  9   8   9  ar  
 10   9  10  1   
 11   9  14  ar  
 12  10  11  1   
 13  10  12  1   
 14  10  13  1   
 15  14  15  1   
 16  14  16  ar  
 17  16  17  1   
 18  17  18  1   
 19  17  19  1   
 20  17  20  1   
@<TRIPOS>SUBSTRUCTURE
  1 ****  16 GROUP 4 **** **** 0

# MOE 2022.02 (io_trps.svl 2020.11)

@<TRIPOS>MOLECULE
LCSOL062
17 18 1 0 0 
SMALL
USER_CHARGES


@<TRIPOS>ATOM
  1 H        7.5080     0.4220    -0.0010 H     1 <1>   0.5000 
  2 O        6.9300     1.2100    -0.0010 O.3   1 <1>  -0.6500 
  3 C        5.6750     0.6940    -0.0010 C.2   1 <1>   0.8060 
  4 O        5.5370    -0.5240    -0.0010 O.2   1 <1>  -0.5700 
  5 C        4.5850     1.6780    -0.0020 C.2   1 <1>   0.2030 
  6 N        4.8670     2.9880    -0.0030 N.2   1 <1>  -0.5100 
  7 S        3.4700     3.8580    -0.0040 S.3   1 <1>   0.1810 
  8 C        2.4020     2.5170    -0.0030 C.ar  1 <1>   0.0400 
  9 C        0.9960     2.5030    -0.0030 C.ar  1 <1>  -0.1500 
 10 H        0.4280     3.4290    -0.0040 H     1 <1>   0.1500 
 11 C        0.3440     1.2690    -0.0020 C.ar  1 <1>  -0.1500 
 12 H       -0.7430     1.2350    -0.0020 H     1 <1>   0.1500 
 13 C        1.0710     0.0850    -0.0010 C.ar  1 <1>  -0.1500 
 14 H        0.5520    -0.8710     0.0000 H     1 <1>   0.1500 
 15 C        2.4700     0.1120     0.0000 C.ar  1 <1>  -0.1500 
 16 H        3.0170    -0.8290     0.0010 H     1 <1>   0.1500 
 17 C        3.1670     1.3480    -0.0020 C.ar  1 <1>   0.0000 
@<TRIPOS>BOND
  1   1   2  1   
  2   2   3  1   
  3   3   4  2   
  4   3   5  1   
  5   5   6  2   
  6   5  17  1   
  7   6   7  1   
  8   7   8  1   
  9   8   9  ar  
 10   8  17  ar  
 11   9  10  1   
 12   9  11  ar  
 13  11  12  1   
 14  11  13  ar  
 15  13  14  1   
 16  13  15  ar  
 17  15  16  1   
 18  15  17  ar  
@<TRIPOS>SUBSTRUCTURE
  1 ****  17 GROUP 4 **** **** 0

# MOE 2022.02 (io_trps.svl 2020.11)

@<TRIPOS>MOLECULE
LCSOL063
24 25 1 0 0 
SMALL
USER_CHARGES


@<TRIPOS>ATOM
  1 H        1.9040    -4.0410     0.1040 H     1 <1>   0.1500 
  2 C        0.9810    -3.4780    -0.0030 C.ar  1 <1>  -0.1500 
  3 C       -0.2430    -4.0960     0.2590 C.ar  1 <1>  -0.1500 
  4 H       -0.2560    -5.1410     0.5650 H     1 <1>   0.1500 
  5 C       -1.4460    -3.3830     0.1320 C.ar  1 <1>  -0.1440 
  6 C       -1.4090    -2.0360    -0.2800 C.ar  1 <1>  -0.1440 
  7 C       -0.1730    -1.4230    -0.5450 C.ar  1 <1>  -0.1500 
  8 H       -0.1370    -0.3820    -0.8550 H     1 <1>   0.1500 
  9 C        1.0100    -2.1460    -0.4050 C.ar  1 <1>   0.1770 
 10 CL       2.5190    -1.3850    -0.7310 Cl    1 <1>  -0.1770 
 11 C       -2.6980    -1.2430    -0.3990 C.3   1 <1>   0.1440 
 12 H       -2.6550    -0.6440    -1.3180 H     1 <1>   0.0000 
 13 C       -2.8480    -0.2940     0.7950 C.3   1 <1>   0.0000 
 14 H       -2.0260     0.4310     0.8290 H     1 <1>   0.0000 
 15 H       -2.8500    -0.8330     1.7480 H     1 <1>   0.0000 
 16 H       -3.7830     0.2730     0.7230 H     1 <1>   0.0000 
 17 C       -3.9130    -2.1850    -0.5210 C.3   1 <1>   0.2700 
 18 H       -4.8390    -1.6020    -0.4540 H     1 <1>   0.0000 
 19 H       -3.9220    -2.6720    -1.5050 H     1 <1>   0.0000 
 20 N       -3.9090    -3.1990     0.5360 N.3   1 <1>  -0.9000 
 21 H       -4.7640    -3.7510     0.4860 H     1 <1>   0.3600 
 22 C       -2.7600    -4.0960     0.3690 C.3   1 <1>   0.4140 
 23 H       -2.6790    -4.7090     1.2730 H     1 <1>   0.0000 
 24 H       -2.9440    -4.7710    -0.4770 H     1 <1>   0.0000 
@<TRIPOS>BOND
  1   1   2  1   
  2   2   3  ar  
  3   2   9  ar  
  4   3   4  1   
  5   3   5  ar  
  6   5   6  ar  
  7   5  22  1   
  8   6   7  ar  
  9   6  11  1   
 10   7   8  1   
 11   7   9  ar  
 12   9  10  1   
 13  11  12  1   
 14  11  13  1   
 15  11  17  1   
 16  13  14  1   
 17  13  15  1   
 18  13  16  1   
 19  17  18  1   
 20  17  19  1   
 21  17  20  1   
 22  20  21  1   
 23  20  22  1   
 24  22  23  1   
 25  22  24  1   
@<TRIPOS>SUBSTRUCTURE
  1 ****   6 GROUP 4 **** **** 0

# MOE 2022.02 (io_trps.svl 2020.11)

@<TRIPOS>MOLECULE
LCSOL064
12 12 1 0 0 
SMALL
USER_CHARGES


@<TRIPOS>ATOM
  1 H       -1.1440    -2.7530     0.0000 H     1 <1>   0.5000 
  2 O       -0.1750    -2.8910     0.0010 O.3   1 <1>  -0.6500 
  3 C        0.3110    -1.6270    -0.0020 C.2   1 <1>   0.8050 
  4 O       -0.4640    -0.6820    -0.0060 O.2   1 <1>  -0.5700 
  5 C        1.7550    -1.6180    -0.0010 C.2   1 <1>  -0.0450 
  6 S        2.5860    -0.1150    -0.0050 S.3   1 <1>  -0.0800 
  7 C        4.1160    -0.8810    -0.0020 C.2   1 <1>  -0.1100 
  8 H        5.0230    -0.2910    -0.0030 H     1 <1>   0.1500 
  9 C        3.9880    -2.2460     0.0020 C.2   1 <1>   0.0570 
 10 BR       5.4300    -3.4600     0.0070 Br    1 <1>  -0.0570 
 11 C        2.6400    -2.6820     0.0020 C.2   1 <1>  -0.1500 
 12 H        2.3210    -3.7180     0.0050 H     1 <1>   0.1500 
@<TRIPOS>BOND
  1   1   2  1   
  2   2   3  1   
  3   3   4  2   
  4   3   5  1   
  5   5   6  1   
  6   5  11  2   
  7   6   7  1   
  8   7   8  1   
  9   7   9  2   
 10   9  10  1   
 11   9  11  1   
 12  11  12  1   
@<TRIPOS>SUBSTRUCTURE
  1 ****   5 GROUP 4 **** **** 0

# MOE 2022.02 (io_trps.svl 2020.11)

@<TRIPOS>MOLECULE
LCSOL065
21 21 1 0 0 
SMALL
USER_CHARGES


@<TRIPOS>ATOM
  1 H       -1.2050     3.4770     0.4910 H     1 <1>   0.3700 
  2 N       -1.1130     2.4940     0.2700 N.am  1 <1>  -0.7300 
  3 C       -2.2890     1.8240     0.0610 C.2   1 <1>   0.5690 
  4 O       -3.3490     2.4480     0.1430 O.2   1 <1>  -0.5700 
  5 C       -2.2390     0.2880    -0.1790 C.3   1 <1>   0.3310 
  6 C       -3.1620    -0.0500    -1.3570 C.3   1 <1>   0.0000 
  7 H       -2.8430     0.4660    -2.2710 H     1 <1>   0.0000 
  8 H       -4.1950     0.2600    -1.1580 H     1 <1>   0.0000 
  9 H       -3.1760    -1.1260    -1.5640 H     1 <1>   0.0000 
 10 C       -2.7570    -0.4110     1.0890 C.3   1 <1>   0.0000 
 11 H       -3.7920    -0.1190     1.3010 H     1 <1>   0.0000 
 12 H       -2.1680    -0.1430     1.9730 H     1 <1>   0.0000 
 13 H       -2.7370    -1.5010     0.9840 H     1 <1>   0.0000 
 14 N       -0.8830    -0.2140    -0.5390 N.3   1 <1>  -0.9000 
 15 H       -0.8670    -1.2290    -0.4530 H     1 <1>   0.3600 
 16 C        0.1640     0.3720     0.2990 C.3   1 <1>   0.2700 
 17 H        1.1350    -0.0390     0.0040 H     1 <1>   0.0000 
 18 H        0.0130     0.1070     1.3510 H     1 <1>   0.0000 
 19 C        0.1910     1.8900     0.1290 C.3   1 <1>   0.3000 
 20 H        0.8550     2.3500     0.8680 H     1 <1>   0.0000 
 21 H        0.5580     2.1590    -0.8680 H     1 <1>   0.0000 
@<TRIPOS>BOND
  1   1   2  1   
  2   2   3  am  
  3   2  19  1   
  4   3   4  2   
  5   3   5  1   
  6   5   6  1   
  7   5  10  1   
  8   5  14  1   
  9   6   7  1   
 10   6   8  1   
 11   6   9  1   
 12  10  11  1   
 13  10  12  1   
 14  10  13  1   
 15  14  15  1   
 16  14  16  1   
 17  16  17  1   
 18  16  18  1   
 19  16  19  1   
 20  19  20  1   
 21  19  21  1   
@<TRIPOS>SUBSTRUCTURE
  1 ****   5 GROUP 4 **** **** 0

# MOE 2022.02 (io_trps.svl 2020.11)

@<TRIPOS>MOLECULE
LCSOL066
31 33 1 0 0 
SMALL
USER_CHARGES


@<TRIPOS>ATOM
  1 H       -8.8590     2.1530    -0.2540 H     1 <1>   0.1500 
  2 C       -7.8760     2.6030    -0.1440 C.ar  1 <1>  -0.1500 
  3 C       -6.8100     2.1470    -0.9150 C.ar  1 <1>  -0.1500 
  4 H       -6.9550     1.3410    -1.6280 H     1 <1>   0.1500 
  5 C       -5.5470     2.7290    -0.7730 C.ar  1 <1>  -0.1500 
  6 H       -4.7230     2.3620    -1.3830 H     1 <1>   0.1500 
  7 C       -5.3290     3.7720     0.1400 C.ar  1 <1>   0.0540 
  8 C       -4.0010     4.3530     0.2560 C.2   1 <1>   0.1730 
  9 N       -2.9440     3.9690    -0.5410 N.2   1 <1>  -0.5650 
 10 C       -1.9180     4.7020    -0.1540 C.2   1 <1>   0.0070 
 11 C       -0.5270     4.6710    -0.6940 C.3   1 <1>   0.4500 
 12 H       -0.5680     4.4800    -1.7750 H     1 <1>   0.0000 
 13 N        0.1820     5.9450    -0.4540 N.3   1 <1>  -0.9000 
 14 H        0.0060     6.5770    -1.2350 H     1 <1>   0.3600 
 15 C        1.5990     5.5940    -0.3880 C.3   1 <1>   0.2700 
 16 H        2.1900     6.3880     0.0760 H     1 <1>   0.0000 
 17 H        1.9960     5.4000    -1.3910 H     1 <1>   0.0000 
 18 C        1.5850     4.3300     0.4450 C.3   1 <1>   0.0000 
 19 H        1.4930     4.5770     1.5100 H     1 <1>   0.0000 
 20 H        2.4910     3.7320     0.3130 H     1 <1>   0.0000 
 21 C        0.3360     3.5980    -0.0240 C.3   1 <1>   0.0000 
 22 H        0.6120     2.8330    -0.7600 H     1 <1>   0.0000 
 23 H       -0.1510     3.0900     0.8170 H     1 <1>   0.0000 
 24 N       -2.2850     5.5460     0.8650 N.pl3 1 <1>   0.0330 
 25 H       -1.6550     6.2030     1.3060 H     1 <1>   0.2700 
 26 C       -3.6070     5.3320     1.1410 C.2   1 <1>  -0.3020 
 27 H       -4.1180     5.8840     1.9150 H     1 <1>   0.1500 
 28 C       -6.4140     4.2200     0.9080 C.ar  1 <1>  -0.1500 
 29 H       -6.2960     5.0270     1.6250 H     1 <1>   0.1500 
 30 C       -7.6790     3.6390     0.7670 C.ar  1 <1>  -0.1500 
 31 H       -8.5110     3.9980     1.3680 H     1 <1>   0.1500 
@<TRIPOS>BOND
  1   1   2  1   
  2   2   3  ar  
  3   2  30  ar  
  4   3   4  1   
  5   3   5  ar  
  6   5   6  1   
  7   5   7  ar  
  8   7   8  1   
  9   7  28  ar  
 10   8   9  1   
 11   8  26  2   
 12   9  10  2   
 13  10  11  1   
 14  10  24  1   
 15  11  12  1   
 16  11  13  1   
 17  11  21  1   
 18  13  14  1   
 19  13  15  1   
 20  15  16  1   
 21  15  17  1   
 22  15  18  1   
 23  18  19  1   
 24  18  20  1   
 25  18  21  1   
 26  21  22  1   
 27  21  23  1   
 28  24  25  1   
 29  24  26  1   
 30  26  27  1   
 31  28  29  1   
 32  28  30  ar  
 33  30  31  1   
@<TRIPOS>SUBSTRUCTURE
  1 ****   9 GROUP 4 **** **** 0

# MOE 2022.02 (io_trps.svl 2020.11)

@<TRIPOS>MOLECULE
LCSOL067
25 26 1 0 0 
SMALL
USER_CHARGES


@<TRIPOS>ATOM
  1 H        5.9410     2.0640    -0.6050 H     1 <1>   0.5000 
  2 O        5.2620     2.4350    -0.0020 O.3   1 <1>  -0.6500 
  3 C        4.1060     2.2800    -0.6840 C.2   1 <1>   0.6590 
  4 O        4.1240     1.7730    -1.7940 O.2   1 <1>  -0.5700 
  5 C        2.9120     2.8260     0.0820 C.3   1 <1>   0.2040 
  6 H        3.0650     2.5940     1.1450 H     1 <1>   0.0000 
  7 C        1.5820     2.1790    -0.2890 C.ar  1 <1>  -0.1440 
  8 C        1.4850     0.7790    -0.3860 C.ar  1 <1>  -0.1500 
  9 H        2.3610     0.1510    -0.2380 H     1 <1>   0.1500 
 10 C        0.2700     0.1610    -0.6860 C.ar  1 <1>  -0.1500 
 11 H        0.2180    -0.9210    -0.7710 H     1 <1>   0.1500 
 12 C       -0.8720     0.9300    -0.8800 C.ar  1 <1>  -0.1500 
 13 H       -1.8170     0.4520    -1.1190 H     1 <1>   0.1500 
 14 C       -0.8010     2.3170    -0.7630 C.ar  1 <1>  -0.1500 
 15 H       -1.7030     2.9070    -0.9140 H     1 <1>   0.1500 
 16 C        0.4130     2.9500    -0.4500 C.ar  1 <1>  -0.1440 
 17 C        0.4330     4.4550    -0.3420 C.3   1 <1>   0.1440 
 18 H        0.4460     4.8720    -1.3570 H     1 <1>   0.0000 
 19 H       -0.4820     4.8070     0.1490 H     1 <1>   0.0000 
 20 C        1.6340     4.9720     0.4400 C.3   1 <1>   0.0000 
 21 H        1.6820     6.0640     0.3600 H     1 <1>   0.0000 
 22 H        1.5250     4.7310     1.5050 H     1 <1>   0.0000 
 23 C        2.9140     4.3520    -0.0980 C.3   1 <1>   0.0000 
 24 H        3.0270     4.6120    -1.1600 H     1 <1>   0.0000 
 25 H        3.7800     4.7860     0.4180 H     1 <1>   0.0000 
@<TRIPOS>BOND
  1   1   2  1   
  2   2   3  1   
  3   3   4  2   
  4   3   5  1   
  5   5   6  1   
  6   5   7  1   
  7   5  23  1   
  8   7   8  ar  
  9   7  16  ar  
 10   8   9  1   
 11   8  10  ar  
 12  10  11  1   
 13  10  12  ar  
 14  12  13  1   
 15  12  14  ar  
 16  14  15  1   
 17  14  16  ar  
 18  16  17  1   
 19  17  18  1   
 20  17  19  1   
 21  17  20  1   
 22  20  21  1   
 23  20  22  1   
 24  20  23  1   
 25  23  24  1   
 26  23  25  1   
@<TRIPOS>SUBSTRUCTURE
  1 ****   7 GROUP 4 **** **** 0

# MOE 2022.02 (io_trps.svl 2020.11)

@<TRIPOS>MOLECULE
LCSOL068
26 27 1 0 0 
SMALL
USER_CHARGES


@<TRIPOS>ATOM
  1 H       -3.2610     5.7300     0.3800 H     1 <1>   0.1500 
  2 C       -2.6950     4.8060     0.2930 C.ar  1 <1>  -0.1500 
  3 C       -3.3560     3.5820     0.2780 C.ar  1 <1>  -0.1500 
  4 H       -4.4390     3.5480     0.3550 H     1 <1>   0.1500 
  5 C       -2.6130     2.4130     0.1660 C.ar  1 <1>   0.1770 
  6 CL      -3.4170     0.8910     0.1500 Cl    1 <1>  -0.1770 
  7 C       -1.2180     2.4580     0.0670 C.ar  1 <1>  -0.1500 
  8 H       -0.6860     1.5160    -0.0070 H     1 <1>   0.1500 
  9 C       -0.5330     3.6840     0.0780 C.ar  1 <1>   0.1170 
 10 N        0.8830     3.7200    -0.0250 N.am  1 <1>  -0.4770 
 11 C        1.7100     4.8310     0.0870 C.2   1 <1>   0.7800 
 12 O        1.4070     5.9860     0.3380 O.2   1 <1>  -0.5700 
 13 O        3.0150     4.4580    -0.1040 O.3   1 <1>  -0.4300 
 14 C        3.0380     3.1210    -0.6180 C.3   1 <1>   0.2800 
 15 H        3.1360     3.1840    -1.7100 H     1 <1>   0.0000 
 16 C        4.1990     2.3150    -0.0180 C.3   1 <1>   0.2700 
 17 H        4.1790     2.3940     1.0740 H     1 <1>   0.0000 
 18 H        4.0960     1.2580    -0.2860 H     1 <1>   0.0000 
 19 N        5.5070     2.7860    -0.4750 N.3   1 <1>  -0.9900 
 20 H        6.2460     2.2080    -0.0770 H     1 <1>   0.3600 
 21 H        5.5880     2.7130    -1.4870 H     1 <1>   0.3600 
 22 C        1.6880     2.5540    -0.2350 C.3   1 <1>   0.3000 
 23 H        1.2950     1.9180    -1.0350 H     1 <1>   0.0000 
 24 H        1.7240     1.9870     0.7030 H     1 <1>   0.0000 
 25 C       -1.2990     4.8540     0.1940 C.ar  1 <1>  -0.1500 
 26 H       -0.8390     5.8380     0.2030 H     1 <1>   0.1500 
@<TRIPOS>BOND
  1   1   2  1   
  2   2   3  ar  
  3   2  25  ar  
  4   3   4  1   
  5   3   5  ar  
  6   5   6  1   
  7   5   7  ar  
  8   7   8  1   
  9   7   9  ar  
 10   9  10  1   
 11   9  25  ar  
 12  10  11  am  
 13  10  22  1   
 14  11  12  2   
 15  11  13  1   
 16  13  14  1   
 17  14  15  1   
 18  14  16  1   
 19  14  22  1   
 20  16  17  1   
 21  16  18  1   
 22  16  19  1   
 23  19  20  1   
 24  19  21  1   
 25  22  23  1   
 26  22  24  1   
 27  25  26  1   
@<TRIPOS>SUBSTRUCTURE
  1 ****  10 GROUP 4 **** **** 0

# MOE 2022.02 (io_trps.svl 2020.11)

@<TRIPOS>MOLECULE
LCSOL069
24 25 1 0 0 
SMALL
USER_CHARGES


@<TRIPOS>ATOM
  1 H        4.0350     2.9780    -1.1050 H     1 <1>   0.1500 
  2 C        3.2080     3.0990    -0.4200 C.2   1 <1>  -0.1100 
  3 S        3.5030     3.4140     1.2360 S.3   1 <1>  -0.0800 
  4 C        1.8270     3.4550     1.5850 C.2   1 <1>  -0.1100 
  5 H        1.4930     3.6410     2.5980 H     1 <1>   0.1500 
  6 C        1.0580     3.2390     0.4600 C.2   1 <1>  -0.0540 
  7 C       -0.3940     3.2410     0.5490 C.ar  1 <1>   0.0540 
  8 C       -1.0200     2.1250     1.1300 C.ar  1 <1>  -0.1500 
  9 H       -0.4230     1.3000     1.5140 H     1 <1>   0.1500 
 10 C       -2.4100     2.0490     1.2090 C.ar  1 <1>  -0.1500 
 11 H       -2.8830     1.1800     1.6580 H     1 <1>   0.1500 
 12 C       -3.1870     3.0820     0.6980 C.ar  1 <1>  -0.1500 
 13 H       -4.2720     3.0240     0.7450 H     1 <1>   0.1500 
 14 C       -2.5750     4.1950     0.1180 C.ar  1 <1>  -0.1500 
 15 H       -3.2030     4.9870    -0.2870 H     1 <1>   0.1500 
 16 C       -1.1720     4.3080     0.0500 C.ar  1 <1>  -0.1440 
 17 C       -0.5460     5.5190    -0.6090 C.3   1 <1>   0.4140 
 18 H        0.4740     5.6810    -0.2470 H     1 <1>   0.0000 
 19 H       -0.4950     5.3410    -1.6890 H     1 <1>   0.0000 
 20 N       -1.2870     6.7570    -0.3590 N.3   1 <1>  -0.9900 
 21 H       -0.7710     7.5340    -0.7680 H     1 <1>   0.3600 
 22 H       -1.2980     6.9240     0.6470 H     1 <1>   0.3600 
 23 C        1.8610     3.0290    -0.7020 C.2   1 <1>  -0.1500 
 24 H        1.4700     2.8330    -1.6930 H     1 <1>   0.1500 
@<TRIPOS>BOND
  1   1   2  1   
  2   2   3  1   
  3   2  23  2   
  4   3   4  1   
  5   4   5  1   
  6   4   6  2   
  7   6   7  1   
  8   6  23  1   
  9   7   8  ar  
 10   7  16  ar  
 11   8   9  1   
 12   8  10  ar  
 13  10  11  1   
 14  10  12  ar  
 15  12  13  1   
 16  12  14  ar  
 17  14  15  1   
 18  14  16  ar  
 19  16  17  1   
 20  17  18  1   
 21  17  19  1   
 22  17  20  1   
 23  20  21  1   
 24  20  22  1   
 25  23  24  1   
@<TRIPOS>SUBSTRUCTURE
  1 ****   7 GROUP 4 **** **** 0

# MOE 2022.02 (io_trps.svl 2020.11)

@<TRIPOS>MOLECULE
LCSOL070
28 28 1 0 0 
SMALL
USER_CHARGES


@<TRIPOS>ATOM
  1 H        0.1750     2.5690    -0.4120 H     1 <1>   0.1500 
  2 C       -0.2160     1.5950    -0.1570 C.2   1 <1>  -0.1360 
  3 C       -1.5320     1.3660    -0.0530 C.2   1 <1>  -0.0500 
  4 H       -2.2660     2.1470    -0.2210 H     1 <1>   0.1500 
  5 N       -2.0520     0.1430     0.2690 N.pl3 1 <1>  -0.6000 
  6 H       -3.0590     0.0290     0.3330 H     1 <1>   0.4000 
  7 C       -1.2390    -0.9310     0.5050 C.2   1 <1>  -0.0500 
  8 H       -1.7520    -1.8550     0.7530 H     1 <1>   0.1500 
  9 C        0.0960    -0.8580     0.4390 C.2   1 <1>  -0.1360 
 10 H        0.7480    -1.7000     0.6250 H     1 <1>   0.1500 
 11 C        0.7290     0.4550     0.0930 C.2   1 <1>   0.4210 
 12 N        2.0180     0.4890     0.0400 N.2   1 <1>  -0.6960 
 13 C        2.6920     1.7430    -0.2910 C.3   1 <1>   0.2460 
 14 H        2.3700     2.0930    -1.2800 H     1 <1>   0.0000 
 15 H        2.4350     2.5130     0.4470 H     1 <1>   0.0000 
 16 C        4.2270     1.5390    -0.2990 C.3   1 <1>   0.0000 
 17 C        4.6330     0.5020    -1.3600 C.3   1 <1>   0.0000 
 18 H        4.2780     0.7960    -2.3550 H     1 <1>   0.0000 
 19 H        4.2200    -0.4880    -1.1370 H     1 <1>   0.0000 
 20 H        5.7230     0.3980    -1.4130 H     1 <1>   0.0000 
 21 C        4.7230     1.0780     1.0820 C.3   1 <1>   0.0000 
 22 H        4.3150     0.0980     1.3510 H     1 <1>   0.0000 
 23 H        4.4310     1.7890     1.8630 H     1 <1>   0.0000 
 24 H        5.8160     0.9940     1.1000 H     1 <1>   0.0000 
 25 C        4.8960     2.8830    -0.6420 C.3   1 <1>   0.0000 
 26 H        5.9880     2.7890    -0.6620 H     1 <1>   0.0000 
 27 H        4.6420     3.6510     0.0980 H     1 <1>   0.0000 
 28 H        4.5750     3.2470    -1.6240 H     1 <1>   0.0000 
@<TRIPOS>BOND
  1   1   2  1   
  2   2   3  2   
  3   2  11  1   
  4   3   4  1   
  5   3   5  1   
  6   5   6  1   
  7   5   7  1   
  8   7   8  1   
  9   7   9  2   
 10   9  10  1   
 11   9  11  1   
 12  11  12  2   
 13  12  13  1   
 14  13  14  1   
 15  13  15  1   
 16  13  16  1   
 17  16  17  1   
 18  16  21  1   
 19  16  25  1   
 20  17  18  1   
 21  17  19  1   
 22  17  20  1   
 23  21  22  1   
 24  21  23  1   
 25  21  24  1   
 26  25  26  1   
 27  25  27  1   
 28  25  28  1   
@<TRIPOS>SUBSTRUCTURE
  1 ****  12 GROUP 4 **** **** 0

# MOE 2022.02 (io_trps.svl 2020.11)

@<TRIPOS>MOLECULE
LCSOL071
26 27 1 0 0 
SMALL
USER_CHARGES


@<TRIPOS>ATOM
  1 H        4.1860     1.5340     1.4830 H     1 <1>   0.4500 
  2 O        3.4030     1.0000     1.2580 O.3   1 <1>  -0.5130 
  3 C        3.8310    -0.1580     0.7640 C.2   1 <1>  -0.0890 
  4 C        5.1330    -0.5670     0.5590 C.2   1 <1>  -0.1500 
  5 H        6.0160     0.0250     0.7620 H     1 <1>   0.1500 
  6 C        5.1190    -1.8930     0.0590 C.2   1 <1>  -0.1810 
  7 C        6.3140    -2.7270    -0.2940 C.3   1 <1>   0.7410 
  8 H        6.7140    -3.1830     0.6170 H     1 <1>   0.0000 
  9 O        6.0040    -3.7750    -1.1940 O.3   1 <1>  -0.6800 
 10 H        5.3990    -3.3990    -1.8500 H     1 <1>   0.4000 
 11 O        7.3490    -1.9560    -0.8750 O.3   1 <1>  -0.6800 
 12 H        6.9170    -1.3470    -1.4930 H     1 <1>   0.4000 
 13 C        3.7840    -2.2520    -0.0070 C.2   1 <1>  -0.3020 
 14 H        3.3610    -3.1890    -0.3370 H     1 <1>   0.1500 
 15 N        2.9730    -1.2000     0.4020 N.pl3 1 <1>   0.3260 
 16 C        1.5360    -1.2310     0.4270 C.ar  1 <1>  -0.0230 
 17 C        0.7800    -0.0610     0.5950 C.ar  1 <1>  -0.1500 
 18 H        1.2410     0.9160     0.6940 H     1 <1>   0.1500 
 19 C       -0.6210    -0.1030     0.6120 C.ar  1 <1>  -0.1500 
 20 H       -1.1880     0.8160     0.7400 H     1 <1>   0.1500 
 21 C       -1.2840    -1.3150     0.4590 C.ar  1 <1>  -0.1500 
 22 H       -2.3680    -1.3640     0.4710 H     1 <1>   0.1500 
 23 C       -0.5420    -2.4750     0.2910 C.ar  1 <1>   0.1900 
 24 F       -1.1760    -3.6460     0.1490 F     1 <1>  -0.1900 
 25 C        0.8510    -2.4470     0.2720 C.ar  1 <1>  -0.1500 
 26 H        1.3540    -3.4000     0.1590 H     1 <1>   0.1500 
@<TRIPOS>BOND
  1   1   2  1   
  2   2   3  1   
  3   3   4  2   
  4   3  15  1   
  5   4   5  1   
  6   4   6  1   
  7   6   7  1   
  8   6  13  2   
  9   7   8  1   
 10   7   9  1   
 11   7  11  1   
 12   9  10  1   
 13  11  12  1   
 14  13  14  1   
 15  13  15  1   
 16  15  16  1   
 17  16  17  ar  
 18  16  25  ar  
 19  17  18  1   
 20  17  19  ar  
 21  19  20  1   
 22  19  21  ar  
 23  21  22  1   
 24  21  23  ar  
 25  23  24  1   
 26  23  25  ar  
 27  25  26  1   
@<TRIPOS>SUBSTRUCTURE
  1 ****  15 GROUP 4 **** **** 0

# MOE 2022.02 (io_trps.svl 2020.11)

@<TRIPOS>MOLECULE
LCSOL072
28 29 1 0 0 
SMALL
USER_CHARGES


@<TRIPOS>ATOM
  1 H       -2.9370     5.6240     0.0760 H     1 <1>   0.1500 
  2 C       -2.3930     4.6870     0.0470 C.ar  1 <1>   0.4700 
  3 N       -3.1260     3.5670     0.0430 N.ar  1 <1>  -0.6200 
  4 C       -2.4690     2.3940     0.0040 C.ar  1 <1>   0.4100 
  5 N       -3.2170     1.2280    -0.0010 N.pl3 1 <1>  -0.8380 
  6 C       -4.6650     1.3570     0.0460 C.3   1 <1>   0.3690 
  7 H       -4.9840     1.8720     0.9600 H     1 <1>   0.0000 
  8 H       -5.0380     1.9070    -0.8250 H     1 <1>   0.0000 
  9 H       -5.1590     0.3790     0.0420 H     1 <1>   0.0000 
 10 C       -2.6210    -0.0920    -0.0520 C.3   1 <1>   0.3690 
 11 H       -3.3800    -0.8820    -0.0510 H     1 <1>   0.0000 
 12 H       -1.9790    -0.2640     0.8190 H     1 <1>   0.0000 
 13 H       -2.0290    -0.2180    -0.9650 H     1 <1>   0.0000 
 14 C       -1.0840     2.3850    -0.0290 C.ar  1 <1>  -0.1500 
 15 H       -0.5290     1.4590    -0.0620 H     1 <1>   0.1500 
 16 C       -0.4070     3.5940    -0.0190 C.ar  1 <1>   0.4100 
 17 N        0.9870     3.6270    -0.0470 N.3   1 <1>  -0.5900 
 18 C        1.8820     4.7310    -0.0760 C.3   1 <1>   0.2450 
 19 H        1.8930     5.2230    -1.0540 H     1 <1>   0.0000 
 20 H        1.6950     5.4650     0.7130 H     1 <1>   0.0000 
 21 C        3.0250     3.7430     0.2170 C.3   1 <1>   0.1810 
 22 H        3.3180     3.7510     1.2750 H     1 <1>   0.0000 
 23 C        4.1570     3.8120    -0.6720 C.1   1 <1>   0.3760 
 24 N        5.0750     3.8610    -1.3800 N.1   1 <1>  -0.5570 
 25 C        2.0000     2.6360    -0.0940 C.3   1 <1>   0.2450 
 26 H        2.0670     2.1640    -1.0800 H     1 <1>   0.0000 
 27 H        1.9020     1.8720     0.6830 H     1 <1>   0.0000 
 28 N       -1.0610     4.7630     0.0180 N.ar  1 <1>  -0.6200 
@<TRIPOS>BOND
  1   1   2  1   
  2   2   3  ar  
  3   2  28  ar  
  4   3   4  ar  
  5   4   5  1   
  6   4  14  ar  
  7   5   6  1   
  8   5  10  1   
  9   6   7  1   
 10   6   8  1   
 11   6   9  1   
 12  10  11  1   
 13  10  12  1   
 14  10  13  1   
 15  14  15  1   
 16  14  16  ar  
 17  16  17  1   
 18  16  28  ar  
 19  17  18  1   
 20  17  25  1   
 21  18  19  1   
 22  18  20  1   
 23  18  21  1   
 24  21  22  1   
 25  21  23  1   
 26  21  25  1   
 27  23  24  3   
 28  25  26  1   
 29  25  27  1   
@<TRIPOS>SUBSTRUCTURE
  1 ****  16 GROUP 4 **** **** 0

# MOE 2022.02 (io_trps.svl 2020.11)

@<TRIPOS>MOLECULE
LCSOL073
27 28 1 0 0 
SMALL
USER_CHARGES


@<TRIPOS>ATOM
  1 H       -9.2970     5.5990    -0.9000 H     1 <1>   0.1500 
  2 C       -8.2440     5.3290    -0.8770 C.ar  1 <1>  -0.1500 
  3 C       -7.8490     4.0900    -0.3830 C.ar  1 <1>  -0.1500 
  4 H       -8.5840     3.3790    -0.0160 H     1 <1>   0.1500 
  5 C       -6.4970     3.7560    -0.3580 C.ar  1 <1>   0.1900 
  6 F       -6.1500     2.5540     0.1250 F     1 <1>  -0.1900 
  7 C       -5.5080     4.6310    -0.8210 C.ar  1 <1>  -0.1440 
  8 C       -4.0640     4.2070    -0.7550 C.3   1 <1>   0.3740 
  9 H       -3.9980     3.1130    -0.7930 H     1 <1>   0.0000 
 10 H       -3.5240     4.5740    -1.6350 H     1 <1>   0.0000 
 11 S       -3.2640     4.7970     0.7680 S.3   1 <1>  -0.3710 
 12 C       -1.6250     4.2420     0.5050 C.2   1 <1>   0.6410 
 13 N       -1.3430     3.4850    -0.5010 N.2   1 <1>  -0.6610 
 14 C       -0.0100     3.1370    -0.5660 C.2   1 <1>   0.7810 
 15 O        0.4390     2.4200    -1.4540 O.2   1 <1>  -0.5700 
 16 C        0.9920     3.6360     0.4800 C.2   1 <1>   0.3890 
 17 C        2.4230     3.2200     0.3310 C.3   1 <1>   0.0610 
 18 H        2.4930     2.1290     0.3620 H     1 <1>   0.0000 
 19 H        2.8130     3.5830    -0.6240 H     1 <1>   0.0000 
 20 H        3.0270     3.6360     1.1410 H     1 <1>   0.0000 
 21 N        0.6070     4.3990     1.4640 N.2   1 <1>  -0.4920 
 22 N       -0.7270     4.6840     1.4450 N.pl3 1 <1>  -0.4080 
 23 H       -1.0980     5.2740     2.1880 H     1 <1>   0.4000 
 24 C       -5.9210     5.8800    -1.3090 C.ar  1 <1>   0.1770 
 25 CL      -4.7940     7.0510    -1.8960 Cl    1 <1>  -0.1770 
 26 C       -7.2790     6.2240    -1.3380 C.ar  1 <1>  -0.1500 
 27 H       -7.5920     7.1940    -1.7190 H     1 <1>   0.1500 
@<TRIPOS>BOND
  1   1   2  1   
  2   2   3  ar  
  3   2  26  ar  
  4   3   4  1   
  5   3   5  ar  
  6   5   6  1   
  7   5   7  ar  
  8   7   8  1   
  9   7  24  ar  
 10   8   9  1   
 11   8  10  1   
 12   8  11  1   
 13  11  12  1   
 14  12  13  2   
 15  12  22  1   
 16  13  14  1   
 17  14  15  2   
 18  14  16  1   
 19  16  17  1   
 20  16  21  2   
 21  17  18  1   
 22  17  19  1   
 23  17  20  1   
 24  21  22  1   
 25  22  23  1   
 26  24  25  1   
 27  24  26  ar  
 28  26  27  1   
@<TRIPOS>SUBSTRUCTURE
  1 ****   8 GROUP 4 **** **** 0

# MOE 2022.02 (io_trps.svl 2020.11)

@<TRIPOS>MOLECULE
LCSOL074
17 18 1 0 0 
SMALL
USER_CHARGES


@<TRIPOS>ATOM
  1 H       -5.3830     2.0970     0.2630 H     1 <1>   0.1500 
  2 C       -4.4540     1.5350     0.1860 C.ar  1 <1>  -0.1500 
  3 C       -4.4910     0.1380     0.0820 C.ar  1 <1>   0.1770 
  4 CL      -6.0170    -0.6640     0.0780 Cl    1 <1>  -0.1770 
  5 C       -3.3210    -0.6260    -0.0180 C.ar  1 <1>  -0.1500 
  6 H       -3.3460    -1.7060    -0.0980 H     1 <1>   0.1500 
  7 C       -2.0990     0.0580    -0.0120 C.ar  1 <1>   0.2270 
  8 N       -0.8090    -0.4020    -0.0930 N.2   1 <1>  -0.5650 
  9 C       -0.0820     0.6970    -0.0360 C.2   1 <1>   0.2980 
 10 C        1.3860     0.8380    -0.0760 C.3   1 <1>   0.1800 
 11 H        1.8640    -0.1380    -0.2050 H     1 <1>   0.0000 
 12 H        1.7530     1.2790     0.8560 H     1 <1>   0.0000 
 13 H        1.6880     1.4800    -0.9090 H     1 <1>   0.0000 
 14 O       -0.8000     1.8590     0.0770 O.3   1 <1>  -0.2800 
 15 C       -2.0980     1.4400     0.0920 C.ar  1 <1>   0.1400 
 16 C       -3.2370     2.2290     0.1940 C.ar  1 <1>  -0.1500 
 17 H       -3.1820     3.3070     0.2730 H     1 <1>   0.1500 
@<TRIPOS>BOND
  1   1   2  1   
  2   2   3  ar  
  3   2  16  ar  
  4   3   4  1   
  5   3   5  ar  
  6   5   6  1   
  7   5   7  ar  
  8   7   8  1   
  9   7  15  ar  
 10   8   9  2   
 11   9  10  1   
 12   9  14  1   
 13  10  11  1   
 14  10  12  1   
 15  10  13  1   
 16  14  15  1   
 17  15  16  ar  
 18  16  17  1   
@<TRIPOS>SUBSTRUCTURE
  1 ****   7 GROUP 4 **** **** 0

# MOE 2022.02 (io_trps.svl 2020.11)

@<TRIPOS>MOLECULE
LCSOL075
19 19 1 0 0 
SMALL
USER_CHARGES


@<TRIPOS>ATOM
  1 H       -0.6870    -2.7780    -0.9520 H     1 <1>   0.5000 
  2 O       -0.0020    -2.0910    -0.8100 O.3   1 <1>  -0.6500 
  3 C        1.0710    -2.7890    -0.3970 C.2   1 <1>   0.6340 
  4 O        1.0300    -4.0000    -0.2820 O.2   1 <1>  -0.5700 
  5 C        2.2450    -1.9280    -0.1160 C.ar  1 <1>   0.0860 
  6 C        2.2070    -0.5400    -0.3010 C.ar  1 <1>  -0.1500 
  7 H        1.3040    -0.0510    -0.6590 H     1 <1>   0.1500 
  8 C        3.3340     0.2310    -0.0180 C.ar  1 <1>  -0.1500 
  9 H        3.3020     1.3100    -0.1520 H     1 <1>   0.1500 
 10 C        4.5010    -0.3800     0.4450 C.ar  1 <1>  -0.1500 
 11 H        5.3640     0.2390     0.6780 H     1 <1>   0.1500 
 12 C        4.5530    -1.7670     0.6190 C.ar  1 <1>   0.1020 
 13 S        6.0270    -2.5720     1.2210 S.3   1 <1>  -0.3320 
 14 C        7.1950    -2.0880    -0.0790 C.3   1 <1>   0.2300 
 15 H        6.8190    -2.3860    -1.0620 H     1 <1>   0.0000 
 16 H        8.1500    -2.5910     0.0950 H     1 <1>   0.0000 
 17 H        7.3680    -1.0090    -0.0670 H     1 <1>   0.0000 
 18 C        3.4180    -2.5370     0.3480 C.ar  1 <1>  -0.1500 
 19 H        3.4430    -3.6160     0.4950 H     1 <1>   0.1500 
@<TRIPOS>BOND
  1   1   2  1   
  2   2   3  1   
  3   3   4  2   
  4   3   5  1   
  5   5   6  ar  
  6   5  18  ar  
  7   6   7  1   
  8   6   8  ar  
  9   8   9  1   
 10   8  10  ar  
 11  10  11  1   
 12  10  12  ar  
 13  12  13  1   
 14  12  18  ar  
 15  13  14  1   
 16  14  15  1   
 17  14  16  1   
 18  14  17  1   
 19  18  19  1   
@<TRIPOS>SUBSTRUCTURE
  1 ****  18 GROUP 4 **** **** 0

# MOE 2022.02 (io_trps.svl 2020.11)

@<TRIPOS>MOLECULE
LCSOL076
22 23 1 0 0 
SMALL
USER_CHARGES


@<TRIPOS>ATOM
  1 H        0.2540    -3.4680    -0.0010 H     1 <1>   0.1500 
  2 C       -0.1640    -2.4640    -0.0010 C.ar  1 <1>   0.1600 
  3 N       -1.5190    -2.4190    -0.0010 N.ar  1 <1>  -0.6200 
  4 C       -2.1370    -1.2050    -0.0010 C.ar  1 <1>   0.3100 
  5 C       -3.6240    -1.2400    -0.0010 C.ar  1 <1>   0.0000 
  6 C       -4.3130    -2.4720     0.0000 C.ar  1 <1>  -0.1500 
  7 H       -3.7540    -3.4070     0.0020 H     1 <1>   0.1500 
  8 C       -5.7100    -2.5430     0.0000 C.ar  1 <1>  -0.1500 
  9 H       -6.2020    -3.5130     0.0010 H     1 <1>   0.1500 
 10 C       -6.4650    -1.3770    -0.0010 C.ar  1 <1>  -0.1500 
 11 H       -7.5500    -1.4290    -0.0010 H     1 <1>   0.1500 
 12 C       -5.8220    -0.1450    -0.0030 C.ar  1 <1>  -0.1500 
 13 H       -6.4080     0.7710    -0.0040 H     1 <1>   0.1500 
 14 C       -4.4220    -0.0790    -0.0030 C.ar  1 <1>  -0.1500 
 15 H       -3.9790     0.9120    -0.0040 H     1 <1>   0.1500 
 16 C       -1.3800    -0.0310    -0.0010 C.ar  1 <1>  -0.1500 
 17 H       -1.8450     0.9480    -0.0010 H     1 <1>   0.1500 
 18 C        0.0170    -0.1000    -0.0010 C.ar  1 <1>  -0.1500 
 19 H        0.6010     0.8180    -0.0010 H     1 <1>   0.1500 
 20 C        0.6420    -1.3420    -0.0010 C.ar  1 <1>   0.0730 
 21 C        2.0630    -1.4640    -0.0010 C.1   1 <1>   0.4840 
 22 N        3.2200    -1.5630    -0.0010 N.1   1 <1>  -0.5570 
@<TRIPOS>BOND
  1   1   2  1   
  2   2   3  ar  
  3   2  20  ar  
  4   3   4  ar  
  5   4   5  1   
  6   4  16  ar  
  7   5   6  ar  
  8   5  14  ar  
  9   6   7  1   
 10   6   8  ar  
 11   8   9  1   
 12   8  10  ar  
 13  10  11  1   
 14  10  12  ar  
 15  12  13  1   
 16  12  14  ar  
 17  14  15  1   
 18  16  17  1   
 19  16  18  ar  
 20  18  19  1   
 21  18  20  ar  
 22  20  21  1   
 23  21  22  3   
@<TRIPOS>SUBSTRUCTURE
  1 ****   4 GROUP 4 **** **** 0

# MOE 2022.02 (io_trps.svl 2020.11)

@<TRIPOS>MOLECULE
LCSOL077
24 24 1 0 0 
SMALL
USER_CHARGES


@<TRIPOS>ATOM
  1 H       -0.0070    -0.9760     1.6310 H     1 <1>   0.4500 
  2 O        0.7680    -1.5600     1.6540 O.3   1 <1>  -0.5320 
  3 C        1.6540    -1.1380     0.7060 C.ar  1 <1>   0.0820 
  4 C        1.3760    -0.0430    -0.1060 C.ar  1 <1>  -0.1500 
  5 H        0.4480     0.5100    -0.0110 H     1 <1>   0.1500 
  6 C        2.3130     0.3550    -1.0600 C.ar  1 <1>  -0.1500 
  7 H        2.1120     1.2130    -1.6970 H     1 <1>   0.1500 
  8 C        3.5150    -0.3440    -1.1950 C.ar  1 <1>  -0.1500 
  9 H        4.2450    -0.0190    -1.9340 H     1 <1>   0.1500 
 10 C        3.7940    -1.4510    -0.3800 C.ar  1 <1>  -0.1440 
 11 C        5.0950    -2.2020    -0.5270 C.3   1 <1>   0.4140 
 12 H        5.0510    -3.1320     0.0530 H     1 <1>   0.0000 
 13 H        5.2150    -2.4860    -1.5800 H     1 <1>   0.0000 
 14 N        6.2230    -1.3810    -0.0870 N.3   1 <1>  -0.9000 
 15 H        6.0510    -1.0790     0.8730 H     1 <1>   0.3600 
 16 C        7.4770    -2.1260    -0.1570 C.3   1 <1>   0.2700 
 17 H        7.6740    -2.4400    -1.1880 H     1 <1>   0.0000 
 18 H        7.4290    -3.0240     0.4700 H     1 <1>   0.0000 
 19 C        8.6240    -1.2480     0.3200 C.3   1 <1>   0.0000 
 20 H        9.5680    -1.7990     0.2630 H     1 <1>   0.0000 
 21 H        8.4790    -0.9350     1.3590 H     1 <1>   0.0000 
 22 H        8.7190    -0.3500    -0.3000 H     1 <1>   0.0000 
 23 C        2.8480    -1.8410     0.5790 C.ar  1 <1>  -0.1500 
 24 H        3.0350    -2.6900     1.2300 H     1 <1>   0.1500 
@<TRIPOS>BOND
  1   1   2  1   
  2   2   3  1   
  3   3   4  ar  
  4   3  23  ar  
  5   4   5  1   
  6   4   6  ar  
  7   6   7  1   
  8   6   8  ar  
  9   8   9  1   
 10   8  10  ar  
 11  10  11  1   
 12  10  23  ar  
 13  11  12  1   
 14  11  13  1   
 15  11  14  1   
 16  14  15  1   
 17  14  16  1   
 18  16  17  1   
 19  16  18  1   
 20  16  19  1   
 21  19  20  1   
 22  19  21  1   
 23  19  22  1   
 24  23  24  1   
@<TRIPOS>SUBSTRUCTURE
  1 ****  10 GROUP 4 **** **** 0

# MOE 2022.02 (io_trps.svl 2020.11)

@<TRIPOS>MOLECULE
LCSOL078
18 18 1 0 0 
SMALL
USER_CHARGES


@<TRIPOS>ATOM
  1 H       -4.7440     4.1670    -0.0090 H     1 <1>   0.1500 
  2 C       -3.7550     3.7160    -0.0070 C.ar  1 <1>  -0.1500 
  3 C       -3.6160     2.3310    -0.0100 C.ar  1 <1>  -0.1500 
  4 H       -4.4980     1.6970    -0.0140 H     1 <1>   0.1500 
  5 C       -2.3420     1.7570    -0.0080 C.ar  1 <1>  -0.1500 
  6 H       -2.2620     0.6740    -0.0110 H     1 <1>   0.1500 
  7 C       -1.1940     2.5620    -0.0040 C.ar  1 <1>   0.1170 
  8 N        0.0540     1.9060    -0.0030 N.am  1 <1>  -0.5470 
  9 H        0.0300     0.8990    -0.0020 H     1 <1>   0.3700 
 10 C        1.3000     2.4740    -0.0020 C.2   1 <1>   0.6900 
 11 O        1.5920     3.6610    -0.0070 O.2   1 <1>  -0.5700 
 12 N        2.2930     1.5420     0.0050 N.am  1 <1>  -0.8000 
 13 H        2.1400     0.5480     0.0100 H     1 <1>   0.3700 
 14 H        3.2420     1.8910     0.0050 H     1 <1>   0.3700 
 15 C       -1.3450     3.9500    -0.0020 C.ar  1 <1>  -0.1500 
 16 H       -0.4880     4.6150     0.0020 H     1 <1>   0.1500 
 17 C       -2.6200     4.5240    -0.0030 C.ar  1 <1>  -0.1500 
 18 H       -2.7220     5.6060    -0.0010 H     1 <1>   0.1500 
@<TRIPOS>BOND
  1   1   2  1   
  2   2   3  ar  
  3   2  17  ar  
  4   3   4  1   
  5   3   5  ar  
  6   5   6  1   
  7   5   7  ar  
  8   7   8  1   
  9   7  15  ar  
 10   8   9  1   
 11   8  10  am  
 12  10  11  2   
 13  10  12  am  
 14  12  13  1   
 15  12  14  1   
 16  15  16  1   
 17  15  17  ar  
 18  17  18  1   
@<TRIPOS>SUBSTRUCTURE
  1 ****   7 GROUP 4 **** **** 0

# MOE 2022.02 (io_trps.svl 2020.11)

@<TRIPOS>MOLECULE
LCSOL079
32 34 1 0 0 
SMALL
USER_CHARGES


@<TRIPOS>ATOM
  1 H        0.0720    -4.6470    -1.0870 H     1 <1>   0.1500 
  2 C       -0.4380    -3.7950    -0.6510 C.ar  1 <1>  -0.1500 
  3 C       -1.8320    -3.7830    -0.5230 C.ar  1 <1>  -0.1500 
  4 H       -2.3820    -4.6440    -0.8910 H     1 <1>   0.1500 
  5 C       -2.5130    -2.6790     0.0310 C.ar  1 <1>   0.1000 
  6 N       -3.9250    -2.6950     0.1570 N.pl3 1 <1>  -0.1500 
  7 C       -4.8150    -1.5970     0.3040 C.2   1 <1>   0.4860 
  8 N       -4.4750    -0.3470     0.2870 N.2   1 <1>  -0.6610 
  9 C       -5.4190     0.6270     0.4460 C.2   1 <1>   0.7200 
 10 O       -6.1980     0.6990     1.3900 O.2   1 <1>  -0.5700 
 11 C       -5.3790     1.6780    -0.6300 C.3   1 <1>   0.0610 
 12 H       -4.4570     2.2590    -0.5420 H     1 <1>   0.0000 
 13 H       -6.2370     2.3480    -0.5220 H     1 <1>   0.0000 
 14 H       -5.4300     1.2040    -1.6140 H     1 <1>   0.0000 
 15 C       -6.1970    -2.1720     0.4230 C.2   1 <1>  -0.1240 
 16 C       -6.0090    -3.4910     0.3070 C.2   1 <1>  -0.0380 
 17 N       -4.6960    -3.8240     0.1550 N.pl3 1 <1>  -0.5000 
 18 H       -4.3500    -4.7710     0.0660 H     1 <1>   0.4000 
 19 C       -7.2030    -4.3550     0.3480 C.3   1 <1>   0.3320 
 20 H       -7.2310    -4.9720     1.2500 H     1 <1>   0.0000 
 21 H       -7.3020    -4.9790    -0.5440 H     1 <1>   0.0000 
 22 S       -8.6480    -3.1920     0.4110 S.o   1 <1>   0.1130 
 23 O       -9.2450    -3.1580    -0.9680 O.2   1 <1>  -0.5000 
 24 C       -7.5670    -1.6840     0.5780 C.3   1 <1>   0.3320 
 25 H       -7.7560    -1.2790     1.5740 H     1 <1>   0.0000 
 26 H       -7.8620    -0.9720    -0.1960 H     1 <1>   0.0000 
 27 C       -1.7310    -1.5910     0.4570 C.ar  1 <1>  -0.1500 
 28 H       -2.1900    -0.7210     0.9190 H     1 <1>   0.1500 
 29 C       -0.3370    -1.5990     0.3330 C.ar  1 <1>  -0.1500 
 30 H        0.2520    -0.7520     0.6710 H     1 <1>   0.1500 
 31 C        0.2960    -2.7010    -0.2210 C.ar  1 <1>   0.1900 
 32 F        1.6300    -2.7090    -0.3410 F     1 <1>  -0.1900 
@<TRIPOS>BOND
  1   1   2  1   
  2   2   3  ar  
  3   2  31  ar  
  4   3   4  1   
  5   3   5  ar  
  6   5   6  1   
  7   5  27  ar  
  8   6   7  1   
  9   6  17  1   
 10   7   8  2   
 11   7  15  1   
 12   8   9  1   
 13   9  10  2   
 14   9  11  1   
 15  11  12  1   
 16  11  13  1   
 17  11  14  1   
 18  15  16  2   
 19  15  24  1   
 20  16  17  1   
 21  16  19  1   
 22  17  18  1   
 23  19  20  1   
 24  19  21  1   
 25  19  22  1   
 26  22  23  2   
 27  22  24  1   
 28  24  25  1   
 29  24  26  1   
 30  27  28  1   
 31  27  29  ar  
 32  29  30  1   
 33  29  31  ar  
 34  31  32  1   
@<TRIPOS>SUBSTRUCTURE
  1 ****   6 GROUP 4 **** **** 0

# MOE 2022.02 (io_trps.svl 2020.11)

@<TRIPOS>MOLECULE
LCSOL080
19 19 1 0 0 
SMALL
USER_CHARGES


@<TRIPOS>ATOM
  1 H       -5.4170     3.7150     2.0190 H     1 <1>   0.1500 
  2 C       -4.8690     3.5880     1.0930 C.2   1 <1>   0.0770 
  3 N       -3.4880     3.6030     1.1190 N.2   1 <1>  -0.5650 
  4 C       -3.0200     3.4400    -0.1010 C.2   1 <1>   0.1980 
  5 C       -1.5620     3.4080    -0.4420 C.3   1 <1>   0.1800 
  6 H       -1.4140     3.2790    -1.5220 H     1 <1>   0.0000 
  7 H       -1.1210     4.3780    -0.1810 H     1 <1>   0.0000 
  8 C       -0.8520     2.2920     0.3170 C.3   1 <1>   0.0610 
  9 H       -1.2970     1.3200     0.0740 H     1 <1>   0.0000 
 10 H       -0.9420     2.4500     1.3980 H     1 <1>   0.0000 
 11 C        0.6200     2.2310    -0.0250 C.2   1 <1>   0.4480 
 12 O        1.1290     2.9410    -0.8920 O.2   1 <1>  -0.5700 
 13 C        1.4430     1.2320     0.7460 C.3   1 <1>   0.0610 
 14 H        1.0510     0.2260     0.5770 H     1 <1>   0.0000 
 15 H        1.4120     1.4760     1.8110 H     1 <1>   0.0000 
 16 H        2.4820     1.2690     0.4050 H     1 <1>   0.0000 
 17 S       -4.2090     3.2540    -1.3300 S.3   1 <1>  -0.0800 
 18 C       -5.4390     3.4080    -0.1480 C.2   1 <1>  -0.1100 
 19 H       -6.4860     3.3630    -0.4080 H     1 <1>   0.1500 
@<TRIPOS>BOND
  1   1   2  1   
  2   2   3  1   
  3   2  18  2   
  4   3   4  2   
  5   4   5  1   
  6   4  17  1   
  7   5   6  1   
  8   5   7  1   
  9   5   8  1   
 10   8   9  1   
 11   8  10  1   
 12   8  11  1   
 13  11  12  2   
 14  11  13  1   
 15  13  14  1   
 16  13  15  1   
 17  13  16  1   
 18  17  18  1   
 19  18  19  1   
@<TRIPOS>SUBSTRUCTURE
  1 ****   5 GROUP 4 **** **** 0

# MOE 2022.02 (io_trps.svl 2020.11)

@<TRIPOS>MOLECULE
LCSOL081
25 25 1 0 0 
SMALL
USER_CHARGES


@<TRIPOS>ATOM
  1 H        7.4900    -1.4830     0.7290 H     1 <1>   0.3600 
  2 N        7.2930    -1.9070    -0.1830 N.3   1 <1>  -0.9900 
  3 H        7.9040    -2.7170    -0.2610 H     1 <1>   0.3600 
  4 C        5.8930    -2.3410    -0.1850 C.3   1 <1>   0.3310 
  5 H        5.5750    -2.5120    -1.2170 H     1 <1>   0.0000 
  6 H        5.7740    -3.2650     0.3880 H     1 <1>   0.0000 
  7 C        5.0160    -1.2670     0.4640 C.2   1 <1>   0.4480 
  8 O        5.4230    -0.6030     1.4210 O.2   1 <1>  -0.5700 
  9 C        3.6010    -1.1100    -0.0940 C.3   1 <1>   0.0610 
 10 H        3.6920    -1.0470    -1.1870 H     1 <1>   0.0000 
 11 C        2.7510    -2.3290     0.2790 C.3   1 <1>   0.0000 
 12 H        3.1870    -3.2420    -0.1460 H     1 <1>   0.0000 
 13 H        2.7550    -2.4650     1.3680 H     1 <1>   0.0000 
 14 C        1.3120    -2.1900    -0.2110 C.3   1 <1>   0.0000 
 15 H        1.2970    -2.2160    -1.3070 H     1 <1>   0.0000 
 16 H        0.7210    -3.0450     0.1370 H     1 <1>   0.0000 
 17 C        0.6710    -0.8930     0.2740 C.3   1 <1>   0.0000 
 18 H       -0.3320    -0.7940    -0.1540 H     1 <1>   0.0000 
 19 H        0.5520    -0.9300     1.3640 H     1 <1>   0.0000 
 20 C        1.5130     0.3220    -0.1040 C.3   1 <1>   0.0000 
 21 H        1.5180     0.4400    -1.1940 H     1 <1>   0.0000 
 22 H        1.0600     1.2290     0.3130 H     1 <1>   0.0000 
 23 C        2.9470     0.1870     0.4000 C.3   1 <1>   0.0000 
 24 H        2.9450     0.2150     1.4980 H     1 <1>   0.0000 
 25 H        3.5350     1.0510     0.0690 H     1 <1>   0.0000 
@<TRIPOS>BOND
  1   1   2  1   
  2   2   3  1   
  3   2   4  1   
  4   4   5  1   
  5   4   6  1   
  6   4   7  1   
  7   7   8  2   
  8   7   9  1   
  9   9  10  1   
 10   9  11  1   
 11   9  23  1   
 12  11  12  1   
 13  11  13  1   
 14  11  14  1   
 15  14  15  1   
 16  14  16  1   
 17  14  17  1   
 18  17  18  1   
 19  17  19  1   
 20  17  20  1   
 21  20  21  1   
 22  20  22  1   
 23  20  23  1   
 24  23  24  1   
 25  23  25  1   
@<TRIPOS>SUBSTRUCTURE
  1 ****   9 GROUP 4 **** **** 0

# MOE 2022.02 (io_trps.svl 2020.11)

@<TRIPOS>MOLECULE
LCSOL082
23 24 1 0 0 
SMALL
USER_CHARGES


@<TRIPOS>ATOM
  1 H       -1.1050    -1.7960    -0.0020 H     1 <1>   0.5000 
  2 O       -0.3580    -2.4300    -0.0030 O.3   1 <1>  -0.6500 
  3 C        0.7180    -1.6130     0.0000 C.2   1 <1>   0.8050 
  4 O        0.5810    -0.4000     0.0040 O.2   1 <1>  -0.5700 
  5 C        1.9360    -2.3680     0.0000 C.2   1 <1>  -0.2370 
  6 C        3.2420    -1.9090     0.0030 C.2   1 <1>  -0.1500 
  7 H        3.5140    -0.8610     0.0070 H     1 <1>   0.1500 
  8 C        4.1250    -3.0290     0.0010 C.2   1 <1>  -0.0540 
  9 C        5.5880    -3.0760     0.0030 C.ar  1 <1>   0.0540 
 10 C        6.3270    -1.8790     0.0050 C.ar  1 <1>  -0.1500 
 11 H        5.8270    -0.9140     0.0040 H     1 <1>   0.1500 
 12 C        7.7250    -1.8940     0.0060 C.ar  1 <1>  -0.1500 
 13 H        8.2880    -0.9670     0.0070 H     1 <1>   0.1500 
 14 C        8.3960    -3.1080     0.0060 C.ar  1 <1>   0.1900 
 15 F        9.7360    -3.1240     0.0070 F     1 <1>  -0.1900 
 16 C        7.6970    -4.3060     0.0050 C.ar  1 <1>  -0.1500 
 17 H        8.2390    -5.2460     0.0050 H     1 <1>   0.1500 
 18 C        6.2980    -4.2900     0.0030 C.ar  1 <1>  -0.1500 
 19 H        5.7800    -5.2440     0.0020 H     1 <1>   0.1500 
 20 C        3.3140    -4.1490    -0.0030 C.2   1 <1>  -0.3020 
 21 H        3.5360    -5.2070    -0.0060 H     1 <1>   0.1500 
 22 N        2.0060    -3.7400    -0.0040 N.pl3 1 <1>   0.0330 
 23 H        1.1930    -4.3440    -0.0070 H     1 <1>   0.2700 
@<TRIPOS>BOND
  1   1   2  1   
  2   2   3  1   
  3   3   4  2   
  4   3   5  1   
  5   5   6  2   
  6   5  22  1   
  7   6   7  1   
  8   6   8  1   
  9   8   9  1   
 10   8  20  2   
 11   9  10  ar  
 12   9  18  ar  
 13  10  11  1   
 14  10  12  ar  
 15  12  13  1   
 16  12  14  ar  
 17  14  15  1   
 18  14  16  ar  
 19  16  17  1   
 20  16  18  ar  
 21  18  19  1   
 22  20  21  1   
 23  20  22  1   
 24  22  23  1   
@<TRIPOS>SUBSTRUCTURE
  1 ****   8 GROUP 4 **** **** 0

# MOE 2022.02 (io_trps.svl 2020.11)

@<TRIPOS>MOLECULE
LCSOL083
24 24 1 0 0 
SMALL
USER_CHARGES


@<TRIPOS>ATOM
  1 H       -3.9160    -3.8190     1.1910 H     1 <1>   0.1500 
  2 C       -3.7540    -2.8940     0.6420 C.ar  1 <1>  -0.1500 
  3 C       -2.5850    -2.1620     0.8790 C.ar  1 <1>  -0.1500 
  4 H       -1.8640    -2.5390     1.6010 H     1 <1>   0.1500 
  5 C       -2.3430    -0.9630     0.1970 C.ar  1 <1>  -0.1440 
  6 C       -1.0770    -0.1880     0.4360 C.3   1 <1>   0.4440 
  7 H       -1.2460     0.8840     0.2790 H     1 <1>   0.0000 
  8 H       -0.7400    -0.3100     1.4720 H     1 <1>   0.0000 
  9 N       -0.0220    -0.6240    -0.4500 N.am  1 <1>  -0.7300 
 10 H       -0.2190    -1.3540    -1.1250 H     1 <1>   0.3700 
 11 C        1.2570    -0.1510    -0.4900 C.2   1 <1>   0.5690 
 12 O        2.0610    -0.6120    -1.2960 O.2   1 <1>  -0.5700 
 13 C        1.6300     0.9370     0.4800 C.3   1 <1>   0.0610 
 14 H        2.6740     1.2240     0.3220 H     1 <1>   0.0000 
 15 H        0.9990     1.8150     0.3230 H     1 <1>   0.0000 
 16 H        1.5190     0.5780     1.5070 H     1 <1>   0.0000 
 17 C       -3.2830    -0.5220    -0.7430 C.ar  1 <1>  -0.1500 
 18 H       -3.1070     0.3970    -1.2990 H     1 <1>   0.1500 
 19 C       -4.4500    -1.2570    -0.9760 C.ar  1 <1>   0.1770 
 20 CL      -5.5760    -0.6550    -2.1440 Cl    1 <1>  -0.1770 
 21 C       -4.7050    -2.4540    -0.2840 C.ar  1 <1>   0.1000 
 22 N       -5.8550    -3.2010    -0.4930 N.pl3 1 <1>  -0.9000 
 23 H       -6.5380    -2.8720    -1.1660 H     1 <1>   0.4000 
 24 H       -6.0300    -4.0600     0.0070 H     1 <1>   0.4000 
@<TRIPOS>BOND
  1   1   2  1   
  2   2   3  ar  
  3   2  21  ar  
  4   3   4  1   
  5   3   5  ar  
  6   5   6  1   
  7   5  17  ar  
  8   6   7  1   
  9   6   8  1   
 10   6   9  1   
 11   9  10  1   
 12   9  11  am  
 13  11  12  2   
 14  11  13  1   
 15  13  14  1   
 16  13  15  1   
 17  13  16  1   
 18  17  18  1   
 19  17  19  ar  
 20  19  20  1   
 21  19  21  ar  
 22  21  22  1   
 23  22  23  1   
 24  22  24  1   
@<TRIPOS>SUBSTRUCTURE
  1 ****   5 GROUP 4 **** **** 0

# MOE 2022.02 (io_trps.svl 2020.11)

@<TRIPOS>MOLECULE
LCSOL084
22 23 1 0 0 
SMALL
USER_CHARGES


@<TRIPOS>ATOM
  1 H        3.5400     3.0750     0.0040 H     1 <1>   0.1500 
  2 C        2.6370     3.6010    -0.2750 C.2   1 <1>   0.0770 
  3 N        2.3010     3.7910    -1.5900 N.2   1 <1>  -0.5650 
  4 C        1.1670     4.4540    -1.5660 C.2   1 <1>   0.0370 
  5 H        0.6080     4.7770    -2.4350 H     1 <1>   0.1500 
  6 N        0.7580     4.6980    -0.2840 N.pl3 1 <1>   0.0480 
  7 C       -0.4430     5.4190     0.1040 C.3   1 <1>   0.3990 
  8 H       -0.2770     5.8560     1.0940 H     1 <1>   0.0000 
  9 H       -0.5500     6.2680    -0.5830 H     1 <1>   0.0000 
 10 C       -1.6610     4.5370     0.0680 C.ar  1 <1>  -0.1440 
 11 C       -2.3900     4.4410    -1.1240 C.ar  1 <1>   0.1900 
 12 F       -2.0060     5.1540    -2.1930 F     1 <1>  -0.1900 
 13 C       -3.5140     3.6270    -1.2410 C.ar  1 <1>  -0.1500 
 14 H       -4.0490     3.5820    -2.1850 H     1 <1>   0.1500 
 15 C       -3.9360     2.8780    -0.1480 C.ar  1 <1>  -0.1500 
 16 H       -4.8110     2.2370    -0.2280 H     1 <1>   0.1500 
 17 C       -3.2300     2.9540     1.0520 C.ar  1 <1>  -0.1500 
 18 H       -3.5650     2.3660     1.9040 H     1 <1>   0.1500 
 19 C       -2.1000     3.7750     1.1600 C.ar  1 <1>   0.1770 
 20 CL      -1.2960     3.8170     2.6880 Cl    1 <1>  -0.1770 
 21 C        1.6940     4.1600     0.5550 C.2   1 <1>  -0.3020 
 22 H        1.6210     4.2140     1.6320 H     1 <1>   0.1500 
@<TRIPOS>BOND
  1   1   2  1   
  2   2   3  1   
  3   2  21  2   
  4   3   4  2   
  5   4   5  1   
  6   4   6  1   
  7   6   7  1   
  8   6  21  1   
  9   7   8  1   
 10   7   9  1   
 11   7  10  1   
 12  10  11  ar  
 13  10  19  ar  
 14  11  12  1   
 15  11  13  ar  
 16  13  14  1   
 17  13  15  ar  
 18  15  16  1   
 19  15  17  ar  
 20  17  18  1   
 21  17  19  ar  
 22  19  20  1   
 23  21  22  1   
@<TRIPOS>SUBSTRUCTURE
  1 ****  10 GROUP 4 **** **** 0

# MOE 2022.02 (io_trps.svl 2020.11)

@<TRIPOS>MOLECULE
LCSOL085
22 23 1 0 0 
SMALL
USER_CHARGES


@<TRIPOS>ATOM
  1 H        2.1400     1.4500     0.4170 H     1 <1>   0.1500 
  2 C        1.2510     2.0440     0.2200 C.ar  1 <1>   0.1600 
  3 N        0.1170     1.3400     0.0230 N.ar  1 <1>  -0.6200 
  4 C       -1.0140     2.0500    -0.2420 C.ar  1 <1>   0.3960 
  5 C       -1.0550     3.4350    -0.2870 C.ar  1 <1>   0.0860 
  6 C        0.1410     4.1330    -0.0910 C.ar  1 <1>  -0.1500 
  7 H        0.1620     5.2200    -0.1510 H     1 <1>   0.1500 
  8 C        1.3130     3.4280     0.1700 C.ar  1 <1>  -0.1500 
  9 H        2.2540     3.9450     0.3230 H     1 <1>   0.1500 
 10 C       -2.2760     4.2080    -0.5720 C.2   1 <1>   0.4230 
 11 O       -2.2280     5.1080    -1.4050 O.2   1 <1>  -0.5700 
 12 C       -3.5140     3.9330     0.2510 C.3   1 <1>   0.0610 
 13 H       -3.2490     3.9540     1.3150 H     1 <1>   0.0000 
 14 H       -4.2040     4.7710     0.0900 H     1 <1>   0.0000 
 15 C       -4.2110     2.6370    -0.1280 C.3   1 <1>   0.0000 
 16 H       -5.1920     2.6120     0.3610 H     1 <1>   0.0000 
 17 H       -4.3850     2.6050    -1.2110 H     1 <1>   0.0000 
 18 C       -3.4180     1.4190     0.3160 C.3   1 <1>   0.0610 
 19 H       -4.0360     0.5180     0.2280 H     1 <1>   0.0000 
 20 H       -3.1160     1.4870     1.3680 H     1 <1>   0.0000 
 21 C       -2.2030     1.2240    -0.5530 C.2   1 <1>   0.4230 
 22 O       -2.1900     0.4310    -1.4890 O.2   1 <1>  -0.5700 
@<TRIPOS>BOND
  1   1   2  1   
  2   2   3  ar  
  3   2   8  ar  
  4   3   4  ar  
  5   4   5  ar  
  6   4  21  1   
  7   5   6  ar  
  8   5  10  1   
  9   6   7  1   
 10   6   8  ar  
 11   8   9  1   
 12  10  11  2   
 13  10  12  1   
 14  12  13  1   
 15  12  14  1   
 16  12  15  1   
 17  15  16  1   
 18  15  17  1   
 19  15  18  1   
 20  18  19  1   
 21  18  20  1   
 22  18  21  1   
 23  21  22  2   
@<TRIPOS>SUBSTRUCTURE
  1 ****   4 GROUP 4 **** **** 0

# MOE 2022.02 (io_trps.svl 2020.11)

@<TRIPOS>MOLECULE
LCSOL086
24 25 1 0 0 
SMALL
USER_CHARGES


@<TRIPOS>ATOM
  1 H        0.6300    -2.5230    -0.3680 H     1 <1>   0.4000 
  2 N        0.6900    -1.5170    -0.2430 N.pl3 1 <1>  -0.8840 
  3 H       -0.1990    -1.0310    -0.1730 H     1 <1>   0.4000 
  4 C        1.8880    -0.8990    -0.1780 C.2   1 <1>   0.1240 
  5 S        3.3320    -1.8200    -0.3080 S.3   1 <1>  -0.0800 
  6 C        4.3090    -0.4410    -0.1380 C.2   1 <1>  -0.1400 
  7 C        3.5700     0.7160     0.0020 C.2   1 <1>  -0.1810 
  8 C        2.1650     0.4470    -0.0110 C.2   1 <1>   0.0190 
  9 C        1.1470     1.4450     0.1310 C.1   1 <1>   0.5380 
 10 N        0.3280     2.2610     0.2420 N.1   1 <1>  -0.5570 
 11 C        4.2620     2.0370     0.1740 C.3   1 <1>   0.1810 
 12 H        4.1770     2.3410     1.2240 H     1 <1>   0.0000 
 13 H        3.7770     2.8060    -0.4380 H     1 <1>   0.0000 
 14 C        5.7560     1.9410    -0.2160 C.3   1 <1>   0.2700 
 15 H        5.8520     1.9300    -1.3110 H     1 <1>   0.0000 
 16 H        6.2540     2.8510     0.1420 H     1 <1>   0.0000 
 17 N        6.4000     0.7440     0.3650 N.3   1 <1>  -0.8100 
 18 C        7.8420     0.7620     0.1280 C.3   1 <1>   0.2700 
 19 H        8.3190    -0.1100     0.5900 H     1 <1>   0.0000 
 20 H        8.2960     1.6470     0.5880 H     1 <1>   0.0000 
 21 H        8.0880     0.7650    -0.9400 H     1 <1>   0.0000 
 22 C        5.8090    -0.5010    -0.1800 C.3   1 <1>   0.4500 
 23 H        6.1630    -1.3530     0.4120 H     1 <1>   0.0000 
 24 H        6.1210    -0.6550    -1.2210 H     1 <1>   0.0000 
@<TRIPOS>BOND
  1   1   2  1   
  2   2   3  1   
  3   2   4  1   
  4   4   5  1   
  5   4   8  2   
  6   5   6  1   
  7   6   7  2   
  8   6  22  1   
  9   7   8  1   
 10   7  11  1   
 11   8   9  1   
 12   9  10  3   
 13  11  12  1   
 14  11  13  1   
 15  11  14  1   
 16  14  15  1   
 17  14  16  1   
 18  14  17  1   
 19  17  18  1   
 20  17  22  1   
 21  18  19  1   
 22  18  20  1   
 23  18  21  1   
 24  22  23  1   
 25  22  24  1   
@<TRIPOS>SUBSTRUCTURE
  1 ****   7 GROUP 4 **** **** 0

# MOE 2022.02 (io_trps.svl 2020.11)

@<TRIPOS>MOLECULE
LCSOL087
21 22 1 0 0 
SMALL
USER_CHARGES


@<TRIPOS>ATOM
  1 H       -5.2050    -0.8650     0.2400 H     1 <1>   0.1500 
  2 C       -4.6820     0.0880     0.2650 C.ar  1 <1>  -0.1500 
  3 C       -3.3190     0.1400    -0.0480 C.ar  1 <1>  -0.1500 
  4 H       -2.8150    -0.7870    -0.3180 H     1 <1>   0.1500 
  5 C       -2.5910     1.3480    -0.0280 C.ar  1 <1>  -0.1080 
  6 C       -1.0440     1.4070    -0.3930 C.3   1 <1>   0.1080 
  7 H       -0.9390     1.5960    -1.4740 H     1 <1>   0.0000 
  8 C       -0.1270     0.2120     0.0350 C.3   1 <1>   0.0530 
  9 H       -0.4540    -0.3510     0.9140 H     1 <1>   0.0000 
 10 H        0.1500    -0.4730    -0.7690 H     1 <1>   0.0000 
 11 C        0.9390     1.2700     0.3740 C.2   1 <1>   0.4640 
 12 O        2.1400     1.2420     0.5290 O.2   1 <1>  -0.5700 
 13 C       -0.1250     2.3820     0.4170 C.3   1 <1>   0.0530 
 14 H       -0.4530     2.6120     1.4350 H     1 <1>   0.0000 
 15 H        0.1530     3.3000    -0.1060 H     1 <1>   0.0000 
 16 C       -3.3190     2.5090     0.3070 C.ar  1 <1>  -0.1500 
 17 H       -2.8140     3.4730     0.3220 H     1 <1>   0.1500 
 18 C       -4.6820     2.4680     0.6220 C.ar  1 <1>  -0.1500 
 19 H       -5.2040     3.3860     0.8770 H     1 <1>   0.1500 
 20 C       -5.3580     1.2540     0.6010 C.ar  1 <1>   0.1770 
 21 CL      -7.0320     1.1970     0.9860 Cl    1 <1>  -0.1770 
@<TRIPOS>BOND
  1   1   2  1   
  2   2   3  ar  
  3   2  20  ar  
  4   3   4  1   
  5   3   5  ar  
  6   5   6  1   
  7   5  16  ar  
  8   6   7  1   
  9   6   8  1   
 10   6  13  1   
 11   8   9  1   
 12   8  10  1   
 13   8  11  1   
 14  11  12  2   
 15  11  13  1   
 16  13  14  1   
 17  13  15  1   
 18  16  17  1   
 19  16  18  ar  
 20  18  19  1   
 21  18  20  ar  
 22  20  21  1   
@<TRIPOS>SUBSTRUCTURE
  1 ****   5 GROUP 4 **** **** 0

# MOE 2022.02 (io_trps.svl 2020.11)

@<TRIPOS>MOLECULE
LCSOL088
21 21 1 0 0 
SMALL
USER_CHARGES


@<TRIPOS>ATOM
  1 H        3.1260     1.4210     2.1180 H     1 <1>   0.4000 
  2 O        2.5050     0.7000     1.9240 O.3   1 <1>  -0.6800 
  3 C        2.6040     0.4030     0.5320 C.3   1 <1>   0.4610 
  4 H        2.6840     1.3590     0.0000 H     1 <1>   0.0000 
  5 C        1.3640    -0.2900     0.0630 C.2   1 <1>  -0.1810 
  6 C        0.6220    -1.2350     0.7450 C.2   1 <1>  -0.0100 
  7 H        0.7180    -1.6860     1.7240 H     1 <1>   0.1500 
  8 O       -0.4330    -1.6540     0.0030 O.3   1 <1>  -0.2800 
  9 C       -0.3830    -0.9740    -1.1700 C.2   1 <1>  -0.0100 
 10 H       -1.1700    -1.2010    -1.8750 H     1 <1>   0.1500 
 11 C        0.6980    -0.1240    -1.1860 C.2   1 <1>  -0.1500 
 12 H        0.9730     0.5340    -1.9980 H     1 <1>   0.1500 
 13 C        3.8550    -0.4470     0.2620 C.3   1 <1>   0.0000 
 14 H        3.8330    -1.3460     0.8920 H     1 <1>   0.0000 
 15 H        3.8520    -0.7850    -0.7830 H     1 <1>   0.0000 
 16 C        5.1450     0.3230     0.5400 C.3   1 <1>   0.2700 
 17 H        5.1770     1.2370    -0.0630 H     1 <1>   0.0000 
 18 H        5.1960     0.6170     1.5940 H     1 <1>   0.0000 
 19 N        6.3100    -0.4970     0.2300 N.3   1 <1>  -0.9900 
 20 H        6.3040    -0.7610    -0.7550 H     1 <1>   0.3600 
 21 H        7.1630     0.0420     0.3780 H     1 <1>   0.3600 
@<TRIPOS>BOND
  1   1   2  1   
  2   2   3  1   
  3   3   4  1   
  4   3   5  1   
  5   3  13  1   
  6   5   6  2   
  7   5  11  1   
  8   6   7  1   
  9   6   8  1   
 10   8   9  1   
 11   9  10  1   
 12   9  11  2   
 13  11  12  1   
 14  13  14  1   
 15  13  15  1   
 16  13  16  1   
 17  16  17  1   
 18  16  18  1   
 19  16  19  1   
 20  19  20  1   
 21  19  21  1   
@<TRIPOS>SUBSTRUCTURE
  1 ****   5 GROUP 4 **** **** 0

# MOE 2022.02 (io_trps.svl 2020.11)

@<TRIPOS>MOLECULE
LCSOL089
26 27 1 0 0 
SMALL
USER_CHARGES


@<TRIPOS>ATOM
  1 H        0.2370    -3.2310    -1.1260 H     1 <1>   0.1500 
  2 C       -0.2670    -2.4000    -0.6410 C.ar  1 <1>  -0.1500 
  3 C       -1.6670    -2.3650    -0.6050 C.ar  1 <1>  -0.1500 
  4 H       -2.2010    -3.1780    -1.0890 H     1 <1>   0.1500 
  5 C       -2.3700    -1.3100     0.0020 C.ar  1 <1>   0.1000 
  6 N       -3.7580    -1.2800     0.0340 N.pl3 1 <1>  -0.8380 
  7 C       -4.5350    -2.5200    -0.0540 C.3   1 <1>   0.3690 
  8 H       -4.7010    -2.7670    -1.1100 H     1 <1>   0.0000 
  9 H       -3.9960    -3.3570     0.4080 H     1 <1>   0.0000 
 10 C       -5.8640    -2.3810     0.6710 C.3   1 <1>   0.0610 
 11 H       -6.4550    -3.2940     0.5480 H     1 <1>   0.0000 
 12 H       -5.7110    -2.1980     1.7410 H     1 <1>   0.0000 
 13 C       -6.6300    -1.2170     0.1020 C.2   1 <1>   0.4480 
 14 O       -7.8610    -1.1900     0.1320 O.2   1 <1>  -0.5700 
 15 C       -5.8420    -0.0880    -0.5040 C.3   1 <1>   0.0610 
 16 H       -5.7470    -0.2760    -1.5790 H     1 <1>   0.0000 
 17 H       -6.3860     0.8500    -0.3550 H     1 <1>   0.0000 
 18 C       -4.4760    -0.0070     0.1580 C.3   1 <1>   0.3690 
 19 H       -3.9230     0.8060    -0.3300 H     1 <1>   0.0000 
 20 H       -4.5810     0.2460     1.2200 H     1 <1>   0.0000 
 21 C       -1.5950    -0.2860     0.5750 C.ar  1 <1>  -0.1500 
 22 H       -2.0700     0.5490     1.0820 H     1 <1>   0.1500 
 23 C       -0.1950    -0.3100     0.5450 C.ar  1 <1>  -0.1500 
 24 H        0.3670     0.4980     1.0050 H     1 <1>   0.1500 
 25 C        0.4640    -1.3700    -0.0650 C.ar  1 <1>   0.1770 
 26 CL       2.1820    -1.4070    -0.1050 Cl    1 <1>  -0.1770 
@<TRIPOS>BOND
  1   1   2  1   
  2   2   3  ar  
  3   2  25  ar  
  4   3   4  1   
  5   3   5  ar  
  6   5   6  1   
  7   5  21  ar  
  8   6   7  1   
  9   6  18  1   
 10   7   8  1   
 11   7   9  1   
 12   7  10  1   
 13  10  11  1   
 14  10  12  1   
 15  10  13  1   
 16  13  14  2   
 17  13  15  1   
 18  15  16  1   
 19  15  17  1   
 20  15  18  1   
 21  18  19  1   
 22  18  20  1   
 23  21  22  1   
 24  21  23  ar  
 25  23  24  1   
 26  23  25  ar  
 27  25  26  1   
@<TRIPOS>SUBSTRUCTURE
  1 ****   5 GROUP 4 **** **** 0

# MOE 2022.02 (io_trps.svl 2020.11)

@<TRIPOS>MOLECULE
LCSOL090
23 24 1 0 0 
SMALL
USER_CHARGES


@<TRIPOS>ATOM
  1 H       -2.9960     2.8980     0.5370 H     1 <1>   0.1500 
  2 C       -3.1070     1.8300     0.3760 C.ar  1 <1>   0.1600 
  3 N       -1.9640     1.1260     0.3700 N.ar  1 <1>  -0.6200 
  4 C       -2.0540    -0.2240     0.1710 C.ar  1 <1>   0.3960 
  5 C       -0.7370    -0.9500     0.2060 C.2   1 <1>   0.6340 
  6 O       -0.5830    -2.1330     0.4730 O.2   1 <1>  -0.5700 
  7 O        0.2700    -0.0910    -0.1140 O.3   1 <1>  -0.4300 
  8 C        1.5710    -0.6750    -0.0910 C.3   1 <1>   0.2800 
  9 H        1.8070    -1.0470     0.9110 H     1 <1>   0.0000 
 10 H        1.6440    -1.4780    -0.8310 H     1 <1>   0.0000 
 11 H        2.2970     0.1020    -0.3510 H     1 <1>   0.0000 
 12 C       -3.2790    -0.9120    -0.0350 C.ar  1 <1>   0.0000 
 13 C       -3.4410    -2.3040    -0.2700 C.ar  1 <1>  -0.1500 
 14 H       -2.5820    -2.9700    -0.3090 H     1 <1>   0.1500 
 15 C       -4.7000    -2.8760    -0.4620 C.ar  1 <1>  -0.1500 
 16 H       -4.7890    -3.9450    -0.6360 H     1 <1>   0.1500 
 17 C       -5.8350    -2.0770    -0.4300 C.ar  1 <1>  -0.1500 
 18 H       -6.8170    -2.5190    -0.5790 H     1 <1>   0.1500 
 19 C       -5.7100    -0.7070    -0.2100 C.ar  1 <1>  -0.1500 
 20 H       -6.6130    -0.1000    -0.1930 H     1 <1>   0.1500 
 21 C       -4.4490    -0.1160    -0.0160 C.ar  1 <1>   0.0000 
 22 C       -4.3530     1.2630     0.1930 C.ar  1 <1>  -0.1500 
 23 H       -5.2350     1.8960     0.2120 H     1 <1>   0.1500 
@<TRIPOS>BOND
  1   1   2  1   
  2   2   3  ar  
  3   2  22  ar  
  4   3   4  ar  
  5   4   5  1   
  6   4  12  ar  
  7   5   6  2   
  8   5   7  1   
  9   7   8  1   
 10   8   9  1   
 11   8  10  1   
 12   8  11  1   
 13  12  13  ar  
 14  12  21  ar  
 15  13  14  1   
 16  13  15  ar  
 17  15  16  1   
 18  15  17  ar  
 19  17  18  1   
 20  17  19  ar  
 21  19  20  1   
 22  19  21  ar  
 23  21  22  ar  
 24  22  23  1   
@<TRIPOS>SUBSTRUCTURE
  1 ****  12 GROUP 4 **** **** 0

# MOE 2022.02 (io_trps.svl 2020.11)

@<TRIPOS>MOLECULE
LCSOL091
25 26 1 0 0 
SMALL
USER_CHARGES


@<TRIPOS>ATOM
  1 H        1.5200     2.1610    -1.8130 H     1 <1>   0.4000 
  2 N        1.1990     1.3760    -1.2380 N.2   1 <1>  -0.8500 
  3 C        2.2070     0.8000    -0.6820 C.2   1 <1>   0.4860 
  4 C        3.6300     1.2250    -0.8730 C.2   1 <1>  -0.1360 
  5 H        3.9800     2.0430    -1.4720 H     1 <1>   0.1500 
  6 C        4.3170     0.3380    -0.1200 C.2   1 <1>   0.1450 
  7 C        5.7340     0.3900    -0.0200 C.2   1 <1>   0.0950 
  8 O        6.5120     1.3320    -0.6670 O.3   1 <1>  -0.2800 
  9 C        7.8110     1.1040    -0.3610 C.2   1 <1>  -0.0100 
 10 H        8.5230     1.7820    -0.8100 H     1 <1>   0.1500 
 11 C        7.9220     0.0260     0.4780 C.2   1 <1>  -0.1500 
 12 H        8.8390    -0.3800     0.8830 H     1 <1>   0.1500 
 13 C        6.6000    -0.4300     0.6970 C.2   1 <1>  -0.1500 
 14 H        6.3050    -1.2690     1.3120 H     1 <1>   0.1500 
 15 N        3.4620    -0.5600     0.4950 N.pl3 1 <1>  -0.5000 
 16 H        3.7800    -1.3030     1.1040 H     1 <1>   0.4000 
 17 N        2.1800    -0.2880     0.1640 N.pl3 1 <1>  -0.4190 
 18 C        1.0290    -1.0170     0.6360 C.3   1 <1>   0.3690 
 19 H        0.3210    -0.3350     1.1230 H     1 <1>   0.0000 
 20 H        1.3230    -1.7380     1.4090 H     1 <1>   0.0000 
 21 C        0.3300    -1.7540    -0.5050 C.3   1 <1>   0.2800 
 22 H        1.0440    -2.3620    -1.0700 H     1 <1>   0.0000 
 23 H       -0.1460    -1.0500    -1.1950 H     1 <1>   0.0000 
 24 O       -0.6760    -2.6240     0.0150 O.3   1 <1>  -0.6800 
 25 H       -1.1470    -2.9910    -0.7540 H     1 <1>   0.4000 
@<TRIPOS>BOND
  1   1   2  1   
  2   2   3  2   
  3   3   4  1   
  4   3  17  1   
  5   4   5  1   
  6   4   6  2   
  7   6   7  1   
  8   6  15  1   
  9   7   8  1   
 10   7  13  2   
 11   8   9  1   
 12   9  10  1   
 13   9  11  2   
 14  11  12  1   
 15  11  13  1   
 16  13  14  1   
 17  15  16  1   
 18  15  17  1   
 19  17  18  1   
 20  18  19  1   
 21  18  20  1   
 22  18  21  1   
 23  21  22  1   
 24  21  23  1   
 25  21  24  1   
 26  24  25  1   
@<TRIPOS>SUBSTRUCTURE
  1 ****   6 GROUP 4 **** **** 0

# MOE 2022.02 (io_trps.svl 2020.11)

@<TRIPOS>MOLECULE
LCSOL092
22 22 1 0 0 
SMALL
USER_CHARGES


@<TRIPOS>ATOM
  1 H        0.4890    -3.6620    -0.0050 H     1 <1>   0.1500 
  2 C       -0.0070    -2.6960    -0.0190 C.ar  1 <1>  -0.1500 
  3 C       -1.4050    -2.6820    -0.0430 C.ar  1 <1>  -0.1500 
  4 H       -1.9460    -3.6270    -0.0430 H     1 <1>   0.1500 
  5 C       -2.1000    -1.4700    -0.0680 C.ar  1 <1>  -0.1440 
  6 C       -3.6050    -1.4480    -0.1190 C.3   1 <1>   1.1640 
  7 F       -4.1780    -2.4800     0.5630 F     1 <1>  -0.3400 
  8 F       -4.1460    -0.3140     0.4080 F     1 <1>  -0.3400 
  9 F       -4.0830    -1.5330    -1.3910 F     1 <1>  -0.3400 
 10 C       -1.3660    -0.2770    -0.0740 C.ar  1 <1>  -0.1500 
 11 H       -1.8970     0.6740    -0.0910 H     1 <1>   0.1500 
 12 C        0.0380    -0.2790    -0.0400 C.ar  1 <1>   0.1000 
 13 N        0.6970     0.9460    -0.0030 N.pl3 1 <1>  -0.9000 
 14 H        1.6910     0.9900     0.1430 H     1 <1>   0.4000 
 15 H        0.1850     1.8100    -0.1100 H     1 <1>   0.4000 
 16 C        0.7420    -1.5100    -0.0310 C.ar  1 <1>   0.1000 
 17 N        2.1310    -1.5220    -0.0210 N.pl3 1 <1>  -0.8690 
 18 H        2.6090    -0.6440    -0.1500 H     1 <1>   0.4000 
 19 C        2.9360    -2.7070     0.1380 C.3   1 <1>   0.3690 
 20 H        2.7150    -3.2130     1.0830 H     1 <1>   0.0000 
 21 H        2.7850    -3.4040    -0.6930 H     1 <1>   0.0000 
 22 H        3.9960    -2.4320     0.1490 H     1 <1>   0.0000 
@<TRIPOS>BOND
  1   1   2  1   
  2   2   3  ar  
  3   2  16  ar  
  4   3   4  1   
  5   3   5  ar  
  6   5   6  1   
  7   5  10  ar  
  8   6   7  1   
  9   6   8  1   
 10   6   9  1   
 11  10  11  1   
 12  10  12  ar  
 13  12  13  1   
 14  12  16  ar  
 15  13  14  1   
 16  13  15  1   
 17  16  17  1   
 18  17  18  1   
 19  17  19  1   
 20  19  20  1   
 21  19  21  1   
 22  19  22  1   
@<TRIPOS>SUBSTRUCTURE
  1 ****   5 GROUP 4 **** **** 0

# MOE 2022.02 (io_trps.svl 2020.11)

@<TRIPOS>MOLECULE
LCSOL093
21 21 1 0 0 
SMALL
USER_CHARGES


@<TRIPOS>ATOM
  1 H       -4.4590     4.3420    -0.3480 H     1 <1>   0.3700 
  2 N       -3.6980     3.7440    -0.0350 N.am  1 <1>  -0.4210 
  3 C       -3.7940     2.3990    -0.3300 C.2   1 <1>   0.5690 
  4 O       -4.7610     1.9220    -0.9130 O.2   1 <1>  -0.5700 
  5 C       -2.6110     1.5850     0.1300 C.3   1 <1>   0.0610 
  6 H       -2.6590     0.5900    -0.3260 H     1 <1>   0.0000 
  7 H       -2.6630     1.4590     1.2180 H     1 <1>   0.0000 
  8 C       -1.3440     2.3200    -0.3070 C.3   1 <1>   0.0610 
  9 H       -1.3290     2.3170    -1.4060 H     1 <1>   0.0000 
 10 C       -0.1060     1.5900     0.1560 C.2   1 <1>   0.6590 
 11 O       -0.0950     0.6200     0.9010 O.2   1 <1>  -0.5700 
 12 O        1.0030     2.1580    -0.4000 O.3   1 <1>  -0.4300 
 13 C        2.2290     1.5200    -0.0350 C.3   1 <1>   0.2800 
 14 H        2.3810     1.5730     1.0470 H     1 <1>   0.0000 
 15 H        2.2370     0.4810    -0.3800 H     1 <1>   0.0000 
 16 H        3.0480     2.0540    -0.5260 H     1 <1>   0.0000 
 17 C       -1.3190     3.7760     0.1880 C.3   1 <1>   0.2700 
 18 H       -0.5780     3.9180     0.9820 H     1 <1>   0.0000 
 19 H       -1.0080     4.4220    -0.6430 H     1 <1>   0.0000 
 20 N       -2.6150     4.2470     0.6960 N.3   1 <1>  -0.6390 
 21 H       -2.6340     5.2700     0.7020 H     1 <1>   0.3600 
@<TRIPOS>BOND
  1   1   2  1   
  2   2   3  am  
  3   2  20  1   
  4   3   4  2   
  5   3   5  1   
  6   5   6  1   
  7   5   7  1   
  8   5   8  1   
  9   8   9  1   
 10   8  10  1   
 11   8  17  1   
 12  10  11  2   
 13  10  12  1   
 14  12  13  1   
 15  13  14  1   
 16  13  15  1   
 17  13  16  1   
 18  17  18  1   
 19  17  19  1   
 20  17  20  1   
 21  20  21  1   
@<TRIPOS>SUBSTRUCTURE
  1 ****   8 GROUP 4 **** **** 0

# MOE 2022.02 (io_trps.svl 2020.11)

@<TRIPOS>MOLECULE
LCSOL094
29 30 1 0 0 
SMALL
USER_CHARGES


@<TRIPOS>ATOM
  1 H        3.9120     2.7730    -0.5880 H     1 <1>   0.5000 
  2 O        4.4780     1.9630    -0.5790 O.3   1 <1>  -0.6500 
  3 C        3.7820     0.8300    -0.3500 C.2   1 <1>   0.6590 
  4 O        4.3490    -0.2480    -0.2290 O.2   1 <1>  -0.5700 
  5 C        2.2790     0.9930    -0.2270 C.3   1 <1>   0.0610 
  6 C        1.5130    -0.1000    -1.0160 C.3   1 <1>   0.0000 
  7 H        1.3430     0.1910    -2.0580 H     1 <1>   0.0000 
  8 H        2.0390    -1.0610    -1.0290 H     1 <1>   0.0000 
  9 C        0.1960    -0.2370    -0.2420 C.3   1 <1>   0.0000 
 10 H        0.1630    -1.2100     0.2620 H     1 <1>   0.0000 
 11 H       -0.6840    -0.1830    -0.8880 H     1 <1>   0.0000 
 12 C        0.2890     0.8920     0.7970 C.3   1 <1>   0.0000 
 13 H       -0.4170     0.7680     1.6220 H     1 <1>   0.0000 
 14 C        1.7660     0.7620     1.1990 C.3   1 <1>   0.0000 
 15 H        2.1080     1.5140     1.9160 H     1 <1>   0.0000 
 16 H        2.0200    -0.2290     1.5950 H     1 <1>   0.0000 
 17 C        0.2450     2.3090     0.1320 C.3   1 <1>   0.0000 
 18 C        0.0090     3.3830     1.2120 C.3   1 <1>   0.0000 
 19 H        0.7030     3.2960     2.0540 H     1 <1>   0.0000 
 20 H        0.1060     4.3910     0.7940 H     1 <1>   0.0000 
 21 H       -1.0010     3.2940     1.6290 H     1 <1>   0.0000 
 22 C       -0.8800     2.4620    -0.9060 C.3   1 <1>   0.0000 
 23 H       -0.9310     3.4950    -1.2710 H     1 <1>   0.0000 
 24 H       -1.8540     2.2130    -0.4690 H     1 <1>   0.0000 
 25 H       -0.7310     1.8290    -1.7850 H     1 <1>   0.0000 
 26 C        1.6470     2.3670    -0.5670 C.3   1 <1>   0.2800 
 27 H        1.5620     2.4910    -1.6520 H     1 <1>   0.0000 
 28 O        2.4830     3.4320    -0.1110 O.3   1 <1>  -0.6800 
 29 H        2.3650     3.5550     0.8490 H     1 <1>   0.4000 
@<TRIPOS>BOND
  1   1   2  1   
  2   2   3  1   
  3   3   4  2   
  4   3   5  1   
  5   5   6  1   
  6   5  14  1   
  7   5  26  1   
  8   6   7  1   
  9   6   8  1   
 10   6   9  1   
 11   9  10  1   
 12   9  11  1   
 13   9  12  1   
 14  12  13  1   
 15  12  14  1   
 16  12  17  1   
 17  14  15  1   
 18  14  16  1   
 19  17  18  1   
 20  17  22  1   
 21  17  26  1   
 22  18  19  1   
 23  18  20  1   
 24  18  21  1   
 25  22  23  1   
 26  22  24  1   
 27  22  25  1   
 28  26  27  1   
 29  26  28  1   
 30  28  29  1   
@<TRIPOS>SUBSTRUCTURE
  1 ****   5 GROUP 4 **** **** 0

# MOE 2022.02 (io_trps.svl 2020.11)

@<TRIPOS>MOLECULE
LCSOL095
26 27 1 0 0 
SMALL
USER_CHARGES


@<TRIPOS>ATOM
  1 H       -0.0020    -0.0330    -0.2820 H     1 <1>   0.4500 
  2 O        0.2920     0.8330     0.0410 O.3   1 <1>  -0.5270 
  3 C        1.6700     0.8890    -0.0130 C.2   1 <1>   0.0910 
  4 C        2.4290    -0.1160    -0.4660 C.2   1 <1>  -0.0730 
  5 H        2.0470    -1.0600    -0.8290 H     1 <1>   0.1500 
  6 O        3.8010    -0.1020    -0.5390 O.3   1 <1>  -0.1530 
  7 C        4.4800     1.0240    -0.0910 C.2   1 <1>  -0.0610 
  8 C        5.9750     0.9420    -0.2140 C.3   1 <1>   0.3680 
  9 H        6.2410     0.5110    -1.1850 H     1 <1>   0.0000 
 10 H        6.4250     1.9400    -0.1590 H     1 <1>   0.0000 
 11 S        6.6460    -0.0930     1.1290 S.3   1 <1>  -0.3320 
 12 C        8.3450    -0.1990     0.6020 C.ar  1 <1>   0.1020 
 13 C        8.8840    -1.4530     0.2870 C.ar  1 <1>  -0.1500 
 14 H        8.2720    -2.3500     0.3560 H     1 <1>   0.1500 
 15 C       10.2150    -1.5640    -0.1190 C.ar  1 <1>  -0.1500 
 16 H       10.6400    -2.5320    -0.3680 H     1 <1>   0.1500 
 17 C       11.0040    -0.4230    -0.2020 C.ar  1 <1>   0.1900 
 18 F       12.2810    -0.5300    -0.5910 F     1 <1>  -0.1900 
 19 C       10.4880     0.8270     0.1190 C.ar  1 <1>  -0.1500 
 20 H       11.1270     1.7030     0.0580 H     1 <1>   0.1500 
 21 C        9.1560     0.9400     0.5260 C.ar  1 <1>  -0.1500 
 22 H        8.7670     1.9190     0.7940 H     1 <1>   0.1500 
 23 C        3.8460     2.1110     0.3750 C.2   1 <1>  -0.1360 
 24 H        4.3550     3.0010     0.7180 H     1 <1>   0.1500 
 25 C        2.3700     2.1230     0.4480 C.2   1 <1>   0.5410 
 26 O        1.7830     3.1130     0.8670 O.2   1 <1>  -0.5700 
@<TRIPOS>BOND
  1   1   2  1   
  2   2   3  1   
  3   3   4  2   
  4   3  25  1   
  5   4   5  1   
  6   4   6  1   
  7   6   7  1   
  8   7   8  1   
  9   7  23  2   
 10   8   9  1   
 11   8  10  1   
 12   8  11  1   
 13  11  12  1   
 14  12  13  ar  
 15  12  21  ar  
 16  13  14  1   
 17  13  15  ar  
 18  15  16  1   
 19  15  17  ar  
 20  17  18  1   
 21  17  19  ar  
 22  19  20  1   
 23  19  21  ar  
 24  21  22  1   
 25  23  24  1   
 26  23  25  1   
 27  25  26  2   
@<TRIPOS>SUBSTRUCTURE
  1 ****   8 GROUP 4 **** **** 0

# MOE 2022.02 (io_trps.svl 2020.11)

@<TRIPOS>MOLECULE
LCSOL096
33 34 1 0 0 
SMALL
USER_CHARGES


@<TRIPOS>ATOM
  1 H       -4.3090    -5.0080     0.7220 H     1 <1>   0.1500 
  2 C       -3.3100    -4.7670     0.3720 C.ar  1 <1>  -0.1500 
  3 C       -3.1290    -3.7950    -0.6080 C.ar  1 <1>  -0.1500 
  4 H       -3.9870    -3.2750    -1.0250 H     1 <1>   0.1500 
  5 C       -1.8440    -3.4930    -1.0530 C.ar  1 <1>  -0.1500 
  6 H       -1.7100    -2.7350    -1.8220 H     1 <1>   0.1500 
  7 C       -0.7320    -4.1560    -0.5130 C.ar  1 <1>  -0.1440 
  8 C       -0.9090    -5.1470     0.4640 C.ar  1 <1>   0.1000 
  9 C       -2.2050    -5.4390     0.9010 C.ar  1 <1>  -0.1500 
 10 H       -2.3660    -6.2010     1.6580 H     1 <1>   0.1500 
 11 N        0.1690    -5.8330     0.9920 N.pl3 1 <1>  -0.8690 
 12 H        0.0230    -6.4820     1.7540 H     1 <1>   0.4000 
 13 C        1.5060    -5.6610     0.4520 C.3   1 <1>   0.3690 
 14 H        1.6380    -6.3630    -0.3830 H     1 <1>   0.0000 
 15 H        2.2260    -5.9630     1.2220 H     1 <1>   0.0000 
 16 C        1.7660    -4.2230    -0.0180 C.3   1 <1>   0.0610 
 17 C        3.1040    -4.1620    -0.7460 C.2   1 <1>   0.6590 
 18 O        3.3050    -3.5390    -1.7810 O.2   1 <1>  -0.5700 
 19 O        4.0690    -4.8510    -0.0720 O.3   1 <1>  -0.4300 
 20 C        5.3650    -4.8120    -0.6810 C.3   1 <1>   0.2800 
 21 H        5.3140    -5.2440    -1.6870 H     1 <1>   0.0000 
 22 H        5.7150    -3.7760    -0.7400 H     1 <1>   0.0000 
 23 C        6.3140    -5.6260     0.1770 C.3   1 <1>   0.0000 
 24 H        6.3580    -5.2210     1.1940 H     1 <1>   0.0000 
 25 H        5.9660    -6.6610     0.2620 H     1 <1>   0.0000 
 26 H        7.3220    -5.6260    -0.2470 H     1 <1>   0.0000 
 27 C        1.8380    -3.2390     1.1620 C.3   1 <1>   0.0000 
 28 H        2.0850    -2.2290     0.8140 H     1 <1>   0.0000 
 29 H        2.6190    -3.5330     1.8740 H     1 <1>   0.0000 
 30 H        0.8950    -3.1790     1.7130 H     1 <1>   0.0000 
 31 C        0.6530    -3.8260    -1.0120 C.3   1 <1>   0.1440 
 32 H        0.7900    -4.3540    -1.9660 H     1 <1>   0.0000 
 33 H        0.7190    -2.7520    -1.2310 H     1 <1>   0.0000 
@<TRIPOS>BOND
  1   1   2  1   
  2   2   3  ar  
  3   2   9  ar  
  4   3   4  1   
  5   3   5  ar  
  6   5   6  1   
  7   5   7  ar  
  8   7   8  ar  
  9   7  31  1   
 10   8   9  ar  
 11   8  11  1   
 12   9  10  1   
 13  11  12  1   
 14  11  13  1   
 15  13  14  1   
 16  13  15  1   
 17  13  16  1   
 18  16  17  1   
 19  16  27  1   
 20  16  31  1   
 21  17  18  2   
 22  17  19  1   
 23  19  20  1   
 24  20  21  1   
 25  20  22  1   
 26  20  23  1   
 27  23  24  1   
 28  23  25  1   
 29  23  26  1   
 30  27  28  1   
 31  27  29  1   
 32  27  30  1   
 33  31  32  1   
 34  31  33  1   
@<TRIPOS>SUBSTRUCTURE
  1 ****  16 GROUP 4 **** **** 0

# MOE 2022.02 (io_trps.svl 2020.11)

@<TRIPOS>MOLECULE
LCSOL097
27 29 1 0 0 
SMALL
USER_CHARGES


@<TRIPOS>ATOM
  1 H        2.1120     3.7810     1.3690 H     1 <1>   0.4000 
  2 O        1.6190     3.1760     0.7890 O.3   1 <1>  -0.6800 
  3 C        2.5390     2.1500     0.4150 C.3   1 <1>   0.4240 
  4 H        2.8860     1.6750     1.3370 H     1 <1>   0.0000 
  5 H        3.3690     2.6430    -0.1010 H     1 <1>   0.0000 
  6 C        1.9040     1.1210    -0.4850 C.ar  1 <1>  -0.1440 
  7 C        2.6540     0.0900    -1.0780 C.ar  1 <1>   0.3630 
  8 C        4.1140    -0.0770    -0.8610 C.2   1 <1>   0.3250 
  9 N        4.8200     0.5260     0.0800 N.2   1 <1>  -0.5650 
 10 C        6.1510     0.1530     0.0120 C.ar  1 <1>   0.2270 
 11 C        7.1790     0.5990     0.8680 C.ar  1 <1>  -0.1500 
 12 H        6.9470     1.2950     1.6680 H     1 <1>   0.1500 
 13 C        8.4870     0.1390     0.6830 C.ar  1 <1>  -0.1500 
 14 H        9.2780     0.4840     1.3460 H     1 <1>   0.1500 
 15 C        8.7810    -0.7540    -0.3420 C.ar  1 <1>  -0.1500 
 16 H        9.8020    -1.1050    -0.4770 H     1 <1>   0.1500 
 17 C        7.7790    -1.2100    -1.2040 C.ar  1 <1>  -0.1500 
 18 H        8.0080    -1.9080    -2.0030 H     1 <1>   0.1500 
 19 C        6.4690    -0.7420    -1.0070 C.ar  1 <1>   0.0400 
 20 S        5.0420    -1.1140    -1.8860 S.3   1 <1>  -0.0800 
 21 N        2.0860    -0.8480    -1.8900 N.ar  1 <1>  -0.6200 
 22 C        0.7590    -0.7740    -2.1210 C.ar  1 <1>   0.1600 
 23 H        0.3580    -1.5440    -2.7730 H     1 <1>   0.1500 
 24 C       -0.0560     0.1970    -1.5800 C.ar  1 <1>  -0.1500 
 25 H       -1.1190     0.2150    -1.7930 H     1 <1>   0.1500 
 26 C        0.5250     1.1510    -0.7530 C.ar  1 <1>  -0.1500 
 27 H       -0.1040     1.9240    -0.3170 H     1 <1>   0.1500 
@<TRIPOS>BOND
  1   1   2  1   
  2   2   3  1   
  3   3   4  1   
  4   3   5  1   
  5   3   6  1   
  6   6   7  ar  
  7   6  26  ar  
  8   7   8  1   
  9   7  21  ar  
 10   8   9  2   
 11   8  20  1   
 12   9  10  1   
 13  10  11  ar  
 14  10  19  ar  
 15  11  12  1   
 16  11  13  ar  
 17  13  14  1   
 18  13  15  ar  
 19  15  16  1   
 20  15  17  ar  
 21  17  18  1   
 22  17  19  ar  
 23  19  20  1   
 24  21  22  ar  
 25  22  23  1   
 26  22  24  ar  
 27  24  25  1   
 28  24  26  ar  
 29  26  27  1   
@<TRIPOS>SUBSTRUCTURE
  1 ****   8 GROUP 4 **** **** 0

# MOE 2022.02 (io_trps.svl 2020.11)

@<TRIPOS>MOLECULE
LCSOL098
25 25 1 0 0 
SMALL
USER_CHARGES


@<TRIPOS>ATOM
  1 H       -4.8370     3.8380     0.0000 H     1 <1>   0.1500 
  2 C       -3.9100     3.2790     0.0210 C.2   1 <1>  -0.1500 
  3 C       -2.5940     3.8220     0.0390 C.2   1 <1>  -0.1810 
  4 C       -2.2470     5.2690     0.0320 C.3   1 <1>   0.1810 
  5 H       -1.6610     5.5280     0.9190 H     1 <1>   0.0000 
  6 H       -1.6630     5.5190    -0.8600 H     1 <1>   0.0000 
  7 H       -3.1480     5.8910     0.0300 H     1 <1>   0.0000 
  8 C       -1.7070     2.7510     0.0620 C.2   1 <1>  -0.2370 
  9 C       -0.2610     2.7580     0.0850 C.2   1 <1>   0.8050 
 10 O        0.4550     3.7510     0.0840 O.2   1 <1>  -0.5700 
 11 O        0.1980     1.4710     0.1070 O.3   1 <1>  -0.4300 
 12 C        1.6260     1.3620     0.1310 C.3   1 <1>   0.2800 
 13 H        2.0470     1.8240    -0.7690 H     1 <1>   0.0000 
 14 H        2.0210     1.8610     1.0240 H     1 <1>   0.0000 
 15 C        1.9870    -0.1100     0.1680 C.3   1 <1>   0.0000 
 16 H        1.5540    -0.5910     1.0510 H     1 <1>   0.0000 
 17 H        1.5820    -0.6280    -0.7080 H     1 <1>   0.0000 
 18 H        3.0720    -0.2450     0.1880 H     1 <1>   0.0000 
 19 N       -2.4690     1.6010     0.0600 N.pl3 1 <1>   0.0330 
 20 H       -2.0760     0.6690     0.0740 H     1 <1>   0.2700 
 21 C       -3.8050     1.9050     0.0340 C.2   1 <1>  -0.3320 
 22 C       -4.8460     0.8500     0.0230 C.3   1 <1>   0.1800 
 23 H       -5.8480     1.2870     0.0910 H     1 <1>   0.0000 
 24 H       -4.7910     0.2680    -0.9020 H     1 <1>   0.0000 
 25 H       -4.7150     0.1700     0.8710 H     1 <1>   0.0000 
@<TRIPOS>BOND
  1   1   2  1   
  2   2   3  1   
  3   2  21  2   
  4   3   4  1   
  5   3   8  2   
  6   4   5  1   
  7   4   6  1   
  8   4   7  1   
  9   8   9  1   
 10   8  19  1   
 11   9  10  2   
 12   9  11  1   
 13  11  12  1   
 14  12  13  1   
 15  12  14  1   
 16  12  15  1   
 17  15  16  1   
 18  15  17  1   
 19  15  18  1   
 20  19  20  1   
 21  19  21  1   
 22  21  22  1   
 23  22  23  1   
 24  22  24  1   
 25  22  25  1   
@<TRIPOS>SUBSTRUCTURE
  1 ****   8 GROUP 4 **** **** 0

# MOE 2022.02 (io_trps.svl 2020.11)

@<TRIPOS>MOLECULE
LCSOL099
32 33 1 0 0 
SMALL
USER_CHARGES


@<TRIPOS>ATOM
  1 H        2.6050     3.7810    -1.0700 H     1 <1>   0.1500 
  2 C        1.6720     3.3650    -0.6990 C.ar  1 <1>  -0.1500 
  3 C        0.5620     4.2090    -0.5460 C.ar  1 <1>  -0.1500 
  4 H        0.7260     5.2400    -0.8470 H     1 <1>   0.1500 
  5 C       -0.6980     3.7600    -0.0780 C.ar  1 <1>   0.1170 
  6 C       -0.7670     2.3930     0.2370 C.ar  1 <1>   0.0820 
  7 C        0.3560     1.5500     0.0630 C.ar  1 <1>  -0.1500 
  8 H        0.2520     0.4950     0.3100 H     1 <1>   0.1500 
  9 C        1.5790     2.0200    -0.3970 C.ar  1 <1>   0.1000 
 10 N        2.6580     1.1760    -0.5490 N.pl3 1 <1>  -0.9000 
 11 H        2.5790     0.1930    -0.3270 H     1 <1>   0.4000 
 12 H        3.5460     1.5230    -0.8850 H     1 <1>   0.4000 
 13 O       -1.8180     1.6650     0.7120 O.3   1 <1>  -0.3630 
 14 C       -2.8970     2.3720     1.2800 C.3   1 <1>   0.2800 
 15 H       -3.5130     1.6090     1.7710 H     1 <1>   0.0000 
 16 H       -2.5470     3.0290     2.0880 H     1 <1>   0.0000 
 17 C       -3.7120     3.0960     0.2190 C.3   1 <1>   0.0610 
 18 C       -3.7250     2.4280    -1.1640 C.3   1 <1>   0.0000 
 19 H       -4.4230     2.9420    -1.8360 H     1 <1>   0.0000 
 20 H       -2.7520     2.4540    -1.6630 H     1 <1>   0.0000 
 21 H       -4.0420     1.3820    -1.0920 H     1 <1>   0.0000 
 22 C       -5.1740     3.1730     0.7210 C.3   1 <1>   0.0000 
 23 H       -5.8130     3.7240     0.0210 H     1 <1>   0.0000 
 24 H       -5.2350     3.6810     1.6910 H     1 <1>   0.0000 
 25 H       -5.6040     2.1710     0.8370 H     1 <1>   0.0000 
 26 C       -3.1480     4.5040     0.1140 C.2   1 <1>   0.5690 
 27 O       -3.9450     5.4530     0.0930 O.2   1 <1>  -0.5700 
 28 N       -1.7740     4.7310     0.0030 N.am  1 <1>  -0.4770 
 29 C       -1.3980     6.1510    -0.0490 C.3   1 <1>   0.3000 
 30 H       -0.5430     6.3400     0.6090 H     1 <1>   0.0000 
 31 H       -1.1670     6.4220    -1.0840 H     1 <1>   0.0000 
 32 H       -2.1960     6.8140     0.2970 H     1 <1>   0.0000 
@<TRIPOS>BOND
  1   1   2  1   
  2   2   3  ar  
  3   2   9  ar  
  4   3   4  1   
  5   3   5  ar  
  6   5   6  ar  
  7   5  28  1   
  8   6   7  ar  
  9   6  13  1   
 10   7   8  1   
 11   7   9  ar  
 12   9  10  1   
 13  10  11  1   
 14  10  12  1   
 15  13  14  1   
 16  14  15  1   
 17  14  16  1   
 18  14  17  1   
 19  17  18  1   
 20  17  22  1   
 21  17  26  1   
 22  18  19  1   
 23  18  20  1   
 24  18  21  1   
 25  22  23  1   
 26  22  24  1   
 27  22  25  1   
 28  26  27  2   
 29  26  28  am  
 30  28  29  1   
 31  29  30  1   
 32  29  31  1   
 33  29  32  1   
@<TRIPOS>SUBSTRUCTURE
  1 ****   5 GROUP 4 **** **** 0

# MOE 2022.02 (io_trps.svl 2020.11)

@<TRIPOS>MOLECULE
LCSOL100
24 25 1 0 0 
SMALL
USER_CHARGES


@<TRIPOS>ATOM
  1 H        1.0700     3.6370     0.2080 H     1 <1>   0.1500 
  2 C        1.6060     2.6950     0.1190 C.ar  1 <1>  -0.1500 
  3 C        3.0020     2.6970     0.0910 C.ar  1 <1>  -0.1500 
  4 H        3.5320     3.6450     0.1570 H     1 <1>   0.1500 
  5 C        3.7080     1.4950    -0.0280 C.ar  1 <1>  -0.1440 
  6 C        5.2070     1.4990    -0.0990 C.3   1 <1>   0.1440 
  7 H        5.5320     1.5150    -1.1440 H     1 <1>   0.0000 
  8 H        5.6210     0.6100     0.3890 H     1 <1>   0.0000 
  9 H        5.6230     2.3730     0.4130 H     1 <1>   0.0000 
 10 C        2.9990     0.2910    -0.1370 C.ar  1 <1>  -0.1500 
 11 H        3.5470    -0.6430    -0.2520 H     1 <1>   0.1500 
 12 C        1.5970     0.2730    -0.0950 C.ar  1 <1>  -0.1440 
 13 C        0.9050     1.4880     0.0240 C.ar  1 <1>   0.0860 
 14 C       -0.5830     1.5110     0.0330 C.2   1 <1>   0.4230 
 15 O       -1.1900     2.5780     0.1010 O.2   1 <1>  -0.5700 
 16 C       -1.3160     0.1960    -0.1070 C.3   1 <1>   0.0610 
 17 H       -2.2580     0.2660     0.4470 H     1 <1>   0.0000 
 18 H       -1.5480     0.0450    -1.1670 H     1 <1>   0.0000 
 19 C       -0.5040    -0.9670     0.4410 C.3   1 <1>   0.0000 
 20 H       -1.0440    -1.9070     0.2800 H     1 <1>   0.0000 
 21 H       -0.3790    -0.8480     1.5250 H     1 <1>   0.0000 
 22 C        0.8630    -1.0340    -0.2280 C.3   1 <1>   0.1440 
 23 H        0.7540    -1.2710    -1.2930 H     1 <1>   0.0000 
 24 H        1.4430    -1.8410     0.2370 H     1 <1>   0.0000 
@<TRIPOS>BOND
  1   1   2  1   
  2   2   3  ar  
  3   2  13  ar  
  4   3   4  1   
  5   3   5  ar  
  6   5   6  1   
  7   5  10  ar  
  8   6   7  1   
  9   6   8  1   
 10   6   9  1   
 11  10  11  1   
 12  10  12  ar  
 13  12  13  ar  
 14  12  22  1   
 15  13  14  1   
 16  14  15  2   
 17  14  16  1   
 18  16  17  1   
 19  16  18  1   
 20  16  19  1   
 21  19  20  1   
 22  19  21  1   
 23  19  22  1   
 24  22  23  1   
 25  22  24  1   
@<TRIPOS>SUBSTRUCTURE
  1 ****  13 GROUP 4 **** **** 0

# MOE 2022.02 (io_trps.svl 2020.11)

@<TRIPOS>MOLECULE
LCSOL101
14 14 1 0 0 
SMALL
USER_CHARGES


@<TRIPOS>ATOM
  1 H       -0.7790    -2.6000     1.0220 H     1 <1>   0.5000 
  2 O        0.0510    -2.6620     0.5020 O.3   1 <1>  -0.6500 
  3 C        0.6120    -1.4370     0.6260 C.2   1 <1>   0.6670 
  4 O        0.0370    -0.5930     1.3010 O.2   1 <1>  -0.5700 
  5 C        1.9490    -1.2920    -0.1310 C.3   1 <1>   0.0530 
  6 H        1.7560    -0.9160    -1.1470 H     1 <1>   0.0000 
  7 C        2.9040    -2.5240    -0.1690 C.3   1 <1>   0.0530 
  8 H        2.7610    -3.2620     0.6260 H     1 <1>   0.0000 
  9 H        2.9780    -3.0240    -1.1370 H     1 <1>   0.0000 
 10 C        4.0490    -1.5420     0.1310 C.2   1 <1>   0.4640 
 11 O        5.2560    -1.6020     0.0450 O.2   1 <1>  -0.5700 
 12 C        3.0590    -0.4480     0.5650 C.3   1 <1>   0.0530 
 13 H        3.2440     0.5320     0.1200 H     1 <1>   0.0000 
 14 H        2.9740    -0.3580     1.6510 H     1 <1>   0.0000 
@<TRIPOS>BOND
  1   1   2  1   
  2   2   3  1   
  3   3   4  2   
  4   3   5  1   
  5   5   6  1   
  6   5   7  1   
  7   5  12  1   
  8   7   8  1   
  9   7   9  1   
 10   7  10  1   
 11  10  11  2   
 12  10  12  1   
 13  12  13  1   
 14  12  14  1   
@<TRIPOS>SUBSTRUCTURE
  1 ****   5 GROUP 4 **** **** 0

# MOE 2022.02 (io_trps.svl 2020.11)

@<TRIPOS>MOLECULE
LCSOL102
23 23 1 0 0 
SMALL
USER_CHARGES


@<TRIPOS>ATOM
  1 H       -2.7310     1.7220    -1.6060 H     1 <1>   0.1500 
  2 C       -2.0240     1.8670    -0.7930 C.ar  1 <1>  -0.1500 
  3 C       -2.3170     1.3820     0.4800 C.ar  1 <1>  -0.1500 
  4 H       -3.2520     0.8560     0.6530 H     1 <1>   0.1500 
  5 C       -1.4110     1.5840     1.5180 C.ar  1 <1>   0.1110 
  6 BR      -1.8130     0.9390     3.2500 Br    1 <1>  -0.1110 
  7 C       -0.2110     2.2620     1.2940 C.ar  1 <1>  -0.1500 
  8 H        0.4790     2.4110     2.1210 H     1 <1>   0.1500 
  9 C        0.1050     2.7410     0.0110 C.ar  1 <1>  -0.1440 
 10 C        1.3830     3.5130    -0.2640 C.3   1 <1>   0.4750 
 11 H        1.5850     3.4950    -1.3430 H     1 <1>   0.0000 
 12 C        2.6500     2.8980     0.3800 C.2   1 <1>   0.6590 
 13 O        2.8260     1.7090     0.6160 O.2   1 <1>  -0.5700 
 14 O        3.5910     3.8700     0.6060 O.3   1 <1>  -0.4300 
 15 C        4.8090     3.3830     1.1700 C.3   1 <1>   0.2800 
 16 H        5.2980     2.6870     0.4810 H     1 <1>   0.0000 
 17 H        4.6220     2.9060     2.1370 H     1 <1>   0.0000 
 18 H        5.4730     4.2370     1.3280 H     1 <1>   0.0000 
 19 N        1.1990     4.9320     0.1260 N.3   1 <1>  -0.9900 
 20 H        2.1060     5.3940     0.0400 H     1 <1>   0.3600 
 21 H        0.9720     4.9670     1.1200 H     1 <1>   0.3600 
 22 C       -0.8250     2.5450    -1.0250 C.ar  1 <1>  -0.1500 
 23 H       -0.6230     2.9320    -2.0220 H     1 <1>   0.1500 
@<TRIPOS>BOND
  1   1   2  1   
  2   2   3  ar  
  3   2  22  ar  
  4   3   4  1   
  5   3   5  ar  
  6   5   6  1   
  7   5   7  ar  
  8   7   8  1   
  9   7   9  ar  
 10   9  10  1   
 11   9  22  ar  
 12  10  11  1   
 13  10  12  1   
 14  10  19  1   
 15  12  13  2   
 16  12  14  1   
 17  14  15  1   
 18  15  16  1   
 19  15  17  1   
 20  15  18  1   
 21  19  20  1   
 22  19  21  1   
 23  22  23  1   
@<TRIPOS>SUBSTRUCTURE
  1 ****   9 GROUP 4 **** **** 0

# MOE 2022.02 (io_trps.svl 2020.11)

@<TRIPOS>MOLECULE
LCSOL103
24 24 1 0 0 
SMALL
USER_CHARGES


@<TRIPOS>ATOM
  1 H        2.6130     2.8660     0.9340 H     1 <1>   0.1500 
  2 C        1.5380     2.8940     0.7730 C.ar  1 <1>  -0.1500 
  3 C        0.6800     2.2850     1.6830 C.ar  1 <1>  -0.1500 
  4 H        1.0820     1.7810     2.5580 H     1 <1>   0.1500 
  5 C       -0.6990     2.3240     1.4740 C.ar  1 <1>  -0.1500 
  6 H       -1.3530     1.8430     2.2010 H     1 <1>   0.1500 
  7 C       -1.2510     2.9670     0.3430 C.ar  1 <1>  -0.1440 
  8 C       -2.7720     3.0060     0.1650 C.3   1 <1>   0.6140 
  9 H       -3.0240     3.3120    -0.8570 H     1 <1>   0.0000 
 10 C       -3.3150     4.0630     1.0730 C.1   1 <1>   0.3570 
 11 N       -3.7560     4.8900     1.7610 N.1   1 <1>  -0.5570 
 12 N       -3.3980     1.6530     0.3660 N.3   1 <1>  -0.8100 
 13 C       -2.9490     0.7120    -0.6710 C.3   1 <1>   0.2700 
 14 H       -3.4050    -0.2720    -0.5160 H     1 <1>   0.0000 
 15 H       -1.8670     0.5500    -0.6310 H     1 <1>   0.0000 
 16 H       -3.2100     1.0550    -1.6790 H     1 <1>   0.0000 
 17 C       -4.8650     1.7250     0.3270 C.3   1 <1>   0.2700 
 18 H       -5.2320     2.1610    -0.6100 H     1 <1>   0.0000 
 19 H       -5.2600     2.3090     1.1640 H     1 <1>   0.0000 
 20 H       -5.3010     0.7250     0.4320 H     1 <1>   0.0000 
 21 C       -0.3680     3.5890    -0.5560 C.ar  1 <1>   0.1770 
 22 CL      -0.9190     4.4380    -1.9560 Cl    1 <1>  -0.1770 
 23 C        1.0150     3.5470    -0.3430 C.ar  1 <1>  -0.1500 
 24 H        1.6950     4.0270    -1.0430 H     1 <1>   0.1500 
@<TRIPOS>BOND
  1   1   2  1   
  2   2   3  ar  
  3   2  23  ar  
  4   3   4  1   
  5   3   5  ar  
  6   5   6  1   
  7   5   7  ar  
  8   7   8  1   
  9   7  21  ar  
 10   8   9  1   
 11   8  10  1   
 12   8  12  1   
 13  10  11  3   
 14  12  13  1   
 15  12  17  1   
 16  13  14  1   
 17  13  15  1   
 18  13  16  1   
 19  17  18  1   
 20  17  19  1   
 21  17  20  1   
 22  21  22  1   
 23  21  23  ar  
 24  23  24  1   
@<TRIPOS>SUBSTRUCTURE
  1 ****   7 GROUP 4 **** **** 0

# MOE 2022.02 (io_trps.svl 2020.11)

@<TRIPOS>MOLECULE
LCSOL104
17 17 1 0 0 
SMALL
USER_CHARGES


@<TRIPOS>ATOM
  1 H        0.3470     3.5080     0.4800 H     1 <1>   0.1500 
  2 C       -0.1710     2.5540     0.4150 C.ar  1 <1>  -0.1500 
  3 C       -1.5600     2.5340     0.2650 C.ar  1 <1>  -0.1500 
  4 H       -2.1030     3.4760     0.2140 H     1 <1>   0.1500 
  5 C       -2.2490     1.3150     0.1790 C.ar  1 <1>   0.0860 
  6 C       -3.7330     1.3470     0.0180 C.2   1 <1>   0.4230 
  7 O       -4.3210     2.4270    -0.0230 O.2   1 <1>  -0.5700 
  8 C       -4.4860     0.0470    -0.0910 C.3   1 <1>   0.0610 
  9 H       -5.5540     0.2590    -0.2040 H     1 <1>   0.0000 
 10 H       -4.3530    -0.5460     0.8170 H     1 <1>   0.0000 
 11 H       -4.1560    -0.5080    -0.9730 H     1 <1>   0.0000 
 12 C       -1.5300     0.1140     0.2470 C.ar  1 <1>  -0.1500 
 13 H       -2.0250    -0.8510     0.1850 H     1 <1>   0.1500 
 14 C       -0.1400     0.1350     0.3980 C.ar  1 <1>  -0.1500 
 15 H        0.4090    -0.8020     0.4500 H     1 <1>   0.1500 
 16 C        0.5330     1.3540     0.4810 C.ar  1 <1>   0.1110 
 17 BR       2.4110     1.3760     0.6860 Br    1 <1>  -0.1110 
@<TRIPOS>BOND
  1   1   2  1   
  2   2   3  ar  
  3   2  16  ar  
  4   3   4  1   
  5   3   5  ar  
  6   5   6  1   
  7   5  12  ar  
  8   6   7  2   
  9   6   8  1   
 10   8   9  1   
 11   8  10  1   
 12   8  11  1   
 13  12  13  1   
 14  12  14  ar  
 15  14  15  1   
 16  14  16  ar  
 17  16  17  1   
@<TRIPOS>SUBSTRUCTURE
  1 ****   5 GROUP 4 **** **** 0

# MOE 2022.02 (io_trps.svl 2020.11)

@<TRIPOS>MOLECULE
LCSOL105
24 24 1 0 0 
SMALL
USER_CHARGES


@<TRIPOS>ATOM
  1 H       -5.1230     2.3990    -1.8110 H     1 <1>   0.1500 
  2 C       -4.1610     2.8080    -1.5150 C.ar  1 <1>  -0.1500 
  3 C       -4.0680     4.1100    -1.0420 C.ar  1 <1>  -0.1500 
  4 H       -4.9580     4.7270    -0.9630 H     1 <1>   0.1500 
  5 C       -2.8240     4.6280    -0.6660 C.ar  1 <1>  -0.1500 
  6 H       -2.7860     5.6510    -0.2990 H     1 <1>   0.1500 
  7 C       -1.6460     3.8670    -0.7520 C.ar  1 <1>   0.1000 
  8 N       -0.4600     4.4520    -0.3510 N.pl3 1 <1>  -0.8690 
  9 H       -0.5290     5.4280    -0.0820 H     1 <1>   0.4000 
 10 C        0.8840     3.8580    -0.2570 C.3   1 <1>   0.5690 
 11 C        1.3700     3.2610    -1.5300 C.1   1 <1>   0.3570 
 12 N        1.7790     2.7830    -2.5080 N.1   1 <1>  -0.5570 
 13 C        1.8560     4.9980     0.1190 C.3   1 <1>   0.0000 
 14 H        2.8840     4.6320     0.2250 H     1 <1>   0.0000 
 15 H        1.5680     5.4710     1.0650 H     1 <1>   0.0000 
 16 H        1.8640     5.7810    -0.6490 H     1 <1>   0.0000 
 17 C        0.9190     2.8170     0.8730 C.3   1 <1>   0.0000 
 18 H        0.5610     3.2450     1.8170 H     1 <1>   0.0000 
 19 H        0.2940     1.9450     0.6550 H     1 <1>   0.0000 
 20 H        1.9370     2.4440     1.0380 H     1 <1>   0.0000 
 21 C       -1.7690     2.5590    -1.2300 C.ar  1 <1>  -0.1500 
 22 H       -0.9090     1.9070    -1.3340 H     1 <1>   0.1500 
 23 C       -3.0110     2.0330    -1.6100 C.ar  1 <1>  -0.1500 
 24 H       -3.0720     1.0140    -1.9830 H     1 <1>   0.1500 
@<TRIPOS>BOND
  1   1   2  1   
  2   2   3  ar  
  3   2  23  ar  
  4   3   4  1   
  5   3   5  ar  
  6   5   6  1   
  7   5   7  ar  
  8   7   8  1   
  9   7  21  ar  
 10   8   9  1   
 11   8  10  1   
 12  10  11  1   
 13  10  13  1   
 14  10  17  1   
 15  11  12  3   
 16  13  14  1   
 17  13  15  1   
 18  13  16  1   
 19  17  18  1   
 20  17  19  1   
 21  17  20  1   
 22  21  22  1   
 23  21  23  ar  
 24  23  24  1   
@<TRIPOS>SUBSTRUCTURE
  1 ****   7 GROUP 4 **** **** 0

# MOE 2022.02 (io_trps.svl 2020.11)

@<TRIPOS>MOLECULE
LCSOL106
24 25 1 0 0 
SMALL
USER_CHARGES


@<TRIPOS>ATOM
  1 H       -2.0850     1.0260    -1.3240 H     1 <1>   0.1500 
  2 C       -1.6720     1.9340    -0.8930 C.ar  1 <1>  -0.1500 
  3 C       -2.4780     3.0590    -0.7420 C.ar  1 <1>  -0.1500 
  4 H       -3.5190     3.0200    -1.0550 H     1 <1>   0.1500 
  5 C       -1.9680     4.2420    -0.2010 C.ar  1 <1>  -0.1500 
  6 H       -2.5970     5.1200    -0.0910 H     1 <1>   0.1500 
  7 C       -0.6220     4.2520     0.1860 C.ar  1 <1>  -0.1520 
  8 C        0.2110     3.1410     0.0540 C.ar  1 <1>   0.0000 
  9 C       -0.3280     1.9610    -0.5000 C.ar  1 <1>  -0.1500 
 10 H        0.2930     1.0810    -0.6340 H     1 <1>   0.1500 
 11 C        1.5030     3.5090     0.5530 C.2   1 <1>  -0.1810 
 12 C        2.7130     2.6380     0.6380 C.3   1 <1>   0.2420 
 13 H        3.3560     3.0020     1.4490 H     1 <1>   0.0000 
 14 H        2.4270     1.6090     0.8830 H     1 <1>   0.0000 
 15 C        3.5350     2.6030    -0.6400 C.2   1 <1>   0.4480 
 16 O        3.0890     2.8660    -1.7560 O.2   1 <1>  -0.5700 
 17 C        4.9670     2.1580    -0.4820 C.3   1 <1>   0.0610 
 18 H        4.9920     1.1480    -0.0640 H     1 <1>   0.0000 
 19 H        5.4620     2.1500    -1.4570 H     1 <1>   0.0000 
 20 H        5.4970     2.8520     0.1750 H     1 <1>   0.0000 
 21 C        1.4120     4.8260     0.9640 C.2   1 <1>  -0.3020 
 22 H        2.1470     5.4910     1.3970 H     1 <1>   0.1500 
 23 N        0.1350     5.2620     0.7310 N.pl3 1 <1>   0.0330 
 24 H       -0.2090     6.1910     0.9280 H     1 <1>   0.2700 
@<TRIPOS>BOND
  1   1   2  1   
  2   2   3  ar  
  3   2   9  ar  
  4   3   4  1   
  5   3   5  ar  
  6   5   6  1   
  7   5   7  ar  
  8   7   8  ar  
  9   7  23  1   
 10   8   9  ar  
 11   8  11  1   
 12   9  10  1   
 13  11  12  1   
 14  11  21  2   
 15  12  13  1   
 16  12  14  1   
 17  12  15  1   
 18  15  16  2   
 19  15  17  1   
 20  17  18  1   
 21  17  19  1   
 22  17  20  1   
 23  21  22  1   
 24  21  23  1   
 25  23  24  1   
@<TRIPOS>SUBSTRUCTURE
  1 ****   8 GROUP 4 **** **** 0

# MOE 2022.02 (io_trps.svl 2020.11)

@<TRIPOS>MOLECULE
LCSOL107
23 24 1 0 0 
SMALL
USER_CHARGES


@<TRIPOS>ATOM
  1 H        2.0900     5.7960    -0.8170 H     1 <1>   0.1500 
  2 C        1.3480     5.0240    -0.6680 C.2   1 <1>  -0.0100 
  3 O        0.0610     5.4530    -0.6040 O.3   1 <1>  -0.2800 
  4 C       -0.7200     4.3480    -0.4170 C.2   1 <1>  -0.0400 
  5 C       -2.1840     4.5920    -0.3170 C.3   1 <1>   0.4260 
  6 H       -2.5100     5.1150    -1.2240 H     1 <1>   0.0000 
  7 H       -2.3670     5.2400     0.5490 H     1 <1>   0.0000 
  8 N       -2.9080     3.3310    -0.1700 N.2   1 <1>  -0.6960 
  9 C       -4.1960     3.3800    -0.0700 C.2   1 <1>   0.4860 
 10 C       -4.8820     2.0500     0.0760 C.2   1 <1>  -0.1360 
 11 H       -4.2710     1.1580     0.0890 H     1 <1>   0.1500 
 12 C       -6.2220     2.0380     0.1830 C.2   1 <1>  -0.1500 
 13 H       -6.7580     1.1000     0.2900 H     1 <1>   0.1500 
 14 C       -7.0010     3.2630     0.1610 C.2   1 <1>  -0.1500 
 15 H       -8.0800     3.2030     0.2500 H     1 <1>   0.1500 
 16 C       -6.3660     4.4370     0.0300 C.2   1 <1>  -0.0500 
 17 H       -6.8880     5.3880     0.0060 H     1 <1>   0.1500 
 18 N       -4.9980     4.5090    -0.0840 N.pl3 1 <1>  -0.5500 
 19 H       -4.5880     5.4260    -0.1790 H     1 <1>   0.4000 
 20 C        0.0740     3.2200    -0.3600 C.2   1 <1>  -0.1500 
 21 H       -0.2820     2.2090    -0.2190 H     1 <1>   0.1500 
 22 C        1.4090     3.6590    -0.5230 C.2   1 <1>  -0.1500 
 23 H        2.3050     3.0550    -0.5340 H     1 <1>   0.1500 
@<TRIPOS>BOND
  1   1   2  1   
  2   2   3  1   
  3   2  22  2   
  4   3   4  1   
  5   4   5  1   
  6   4  20  2   
  7   5   6  1   
  8   5   7  1   
  9   5   8  1   
 10   8   9  2   
 11   9  10  1   
 12   9  18  1   
 13  10  11  1   
 14  10  12  2   
 15  12  13  1   
 16  12  14  1   
 17  14  15  1   
 18  14  16  2   
 19  16  17  1   
 20  16  18  1   
 21  18  19  1   
 22  20  21  1   
 23  20  22  1   
 24  22  23  1   
@<TRIPOS>SUBSTRUCTURE
  1 ****   8 GROUP 4 **** **** 0

# MOE 2022.02 (io_trps.svl 2020.11)

@<TRIPOS>MOLECULE
LCSOL108
19 19 1 0 0 
SMALL
USER_CHARGES


@<TRIPOS>ATOM
  1 H       -4.3380    -2.8680    -1.9520 H     1 <1>   0.1500 
  2 C       -3.9140    -1.9530    -1.5450 C.ar  1 <1>  -0.1500 
  3 C       -2.7380    -2.0140    -0.7960 C.ar  1 <1>  -0.1500 
  4 H       -2.2630    -2.9790    -0.6250 H     1 <1>   0.1500 
  5 C       -2.1890    -0.8350    -0.2820 C.ar  1 <1>  -0.0090 
  6 S       -0.7000    -0.9050     0.6910 S.o2  1 <1>   1.2040 
  7 O       -0.7780     0.1920     1.6410 O.2   1 <1>  -0.6500 
  8 O       -0.5440    -2.2640     1.1730 O.2   1 <1>  -0.6500 
  9 C        0.6160    -0.5310    -0.4300 C.3   1 <1>   0.3050 
 10 H        1.5510    -0.5710     0.1340 H     1 <1>   0.0000 
 11 H        0.4700     0.4870    -0.8030 H     1 <1>   0.0000 
 12 C        0.5840    -1.5160    -1.4970 C.1   1 <1>   0.3570 
 13 N        0.5640    -2.2740    -2.3750 N.1   1 <1>  -0.5570 
 14 C       -2.8220     0.3960    -0.4790 C.ar  1 <1>  -0.1500 
 15 H       -2.4220     1.3120    -0.0490 H     1 <1>   0.1500 
 16 C       -4.0000     0.4500    -1.2270 C.ar  1 <1>  -0.1500 
 17 H       -4.4960     1.4050    -1.3830 H     1 <1>   0.1500 
 18 C       -4.5380    -0.7230    -1.7590 C.ar  1 <1>   0.1110 
 19 BR      -6.1330    -0.6460    -2.7710 Br    1 <1>  -0.1110 
@<TRIPOS>BOND
  1   1   2  1   
  2   2   3  ar  
  3   2  18  ar  
  4   3   4  1   
  5   3   5  ar  
  6   5   6  1   
  7   5  14  ar  
  8   6   7  2   
  9   6   8  2   
 10   6   9  1   
 11   9  10  1   
 12   9  11  1   
 13   9  12  1   
 14  12  13  3   
 15  14  15  1   
 16  14  16  ar  
 17  16  17  1   
 18  16  18  ar  
 19  18  19  1   
@<TRIPOS>SUBSTRUCTURE
  1 ****   5 GROUP 4 **** **** 0

# MOE 2022.02 (io_trps.svl 2020.11)

@<TRIPOS>MOLECULE
LCSOL109
20 22 1 0 0 
SMALL
USER_CHARGES


@<TRIPOS>ATOM
  1 H        1.6910     0.8300    -0.0050 H     1 <1>   0.1500 
  2 C        0.9050     1.5720    -0.0100 C.2   1 <1>  -0.1100 
  3 S       -0.7360     1.0830     0.0090 S.3   1 <1>  -0.0800 
  4 C       -1.2730     2.6960    -0.0110 C.2   1 <1>   0.0410 
  5 C       -2.6790     3.0710    -0.0050 C.2   1 <1>   0.2880 
  6 N       -3.6510     2.1340     0.0050 N.2   1 <1>  -0.7070 
  7 N       -4.7790     2.8530     0.0080 N.pl3 1 <1>   0.6010 
  8 C       -6.1490     2.6330     0.0180 C.2   1 <1>  -0.1810 
  9 H       -6.5680     1.6440     0.0260 H     1 <1>   0.1500 
 10 C       -6.7340     3.8490     0.0160 C.2   1 <1>  -0.0500 
 11 H       -7.7820     4.1120     0.0210 H     1 <1>   0.1500 
 12 N       -5.7470     4.8290     0.0040 N.pl3 1 <1>  -0.5840 
 13 H       -5.9620     5.8190     0.0010 H     1 <1>   0.4000 
 14 C       -4.5460     4.2090     0.0000 C.2   1 <1>  -0.0680 
 15 C       -3.2020     4.4040    -0.0090 C.2   1 <1>  -0.1500 
 16 H       -2.6710     5.3430    -0.0170 H     1 <1>   0.1500 
 17 C       -0.2360     3.6020    -0.0320 C.2   1 <1>  -0.1500 
 18 H       -0.3500     4.6780    -0.0480 H     1 <1>   0.1500 
 19 C        1.0330     2.9440    -0.0310 C.2   1 <1>  -0.1500 
 20 H        1.9890     3.4530    -0.0460 H     1 <1>   0.1500 
@<TRIPOS>BOND
  1   1   2  1   
  2   2   3  1   
  3   2  19  2   
  4   3   4  1   
  5   4   5  1   
  6   4  17  2   
  7   5   6  2   
  8   5  15  1   
  9   6   7  1   
 10   7   8  1   
 11   7  14  1   
 12   8   9  1   
 13   8  10  2   
 14  10  11  1   
 15  10  12  1   
 16  12  13  1   
 17  12  14  1   
 18  14  15  2   
 19  15  16  1   
 20  17  18  1   
 21  17  19  1   
 22  19  20  1   
@<TRIPOS>SUBSTRUCTURE
  1 ****   5 GROUP 4 **** **** 0

# MOE 2022.02 (io_trps.svl 2020.11)

@<TRIPOS>MOLECULE
LCSOL110
33 35 1 0 0 
SMALL
USER_CHARGES


@<TRIPOS>ATOM
  1 H        0.5510    -0.4060    -0.7480 H     1 <1>   0.1500 
  2 C       -0.0570     0.4500    -0.4720 C.ar  1 <1>  -0.1500 
  3 C       -1.4340     0.3190    -0.2870 C.ar  1 <1>  -0.1500 
  4 H       -1.9040    -0.6540    -0.4190 H     1 <1>   0.1500 
  5 C       -2.2100     1.4350     0.0670 C.ar  1 <1>   0.0860 
  6 C       -3.6780     1.2380     0.2530 C.2   1 <1>   0.5440 
  7 O       -4.0510     0.1750     0.7250 O.2   1 <1>  -0.5700 
  8 N       -4.4650     2.3020    -0.1340 N.am  1 <1>  -0.4930 
  9 H       -3.9990     3.1340    -0.4770 H     1 <1>   0.3700 
 10 C       -5.8610     2.3720    -0.1330 C.2   1 <1>   0.0630 
 11 C       -6.5320     3.5740    -0.3490 C.2   1 <1>   0.0550 
 12 C       -6.0740     4.9350    -0.4990 C.2   1 <1>   0.7150 
 13 O       -6.5430     5.7640    -1.2730 O.2   1 <1>  -0.5700 
 14 N       -5.0390     5.2970     0.3260 N.am  1 <1>  -0.8000 
 15 H       -4.6700     4.6880     1.0420 H     1 <1>   0.3700 
 16 H       -4.6730     6.2340     0.2240 H     1 <1>   0.3700 
 17 O       -7.8770     3.3680    -0.3850 O.3   1 <1>  -0.2800 
 18 C       -8.0920     2.0520    -0.1520 C.ar  1 <1>   0.1400 
 19 C       -9.3560     1.4630    -0.0960 C.ar  1 <1>  -0.1500 
 20 H      -10.2550     2.0520    -0.2320 H     1 <1>   0.1500 
 21 C       -9.4020     0.0890     0.1380 C.ar  1 <1>  -0.1500 
 22 H      -10.3630    -0.4160     0.1900 H     1 <1>   0.1500 
 23 C       -8.2270    -0.6430     0.2950 C.ar  1 <1>  -0.1500 
 24 H       -8.2780    -1.7160     0.4680 H     1 <1>   0.1500 
 25 C       -6.9710    -0.0180     0.2290 C.ar  1 <1>  -0.1500 
 26 H       -6.0850    -0.6330     0.3420 H     1 <1>   0.1500 
 27 C       -6.8850     1.3740     0.0130 C.ar  1 <1>   0.0000 
 28 C       -1.5890     2.6790     0.2610 C.ar  1 <1>  -0.1500 
 29 H       -2.1480     3.5500     0.5870 H     1 <1>   0.1500 
 30 C       -0.2100     2.8040     0.0740 C.ar  1 <1>  -0.1500 
 31 H        0.2890     3.7570     0.2230 H     1 <1>   0.1500 
 32 C        0.5410     1.6920    -0.2940 C.ar  1 <1>   0.1900 
 33 F        1.8620     1.8210    -0.4710 F     1 <1>  -0.1900 
@<TRIPOS>BOND
  1   1   2  1   
  2   2   3  ar  
  3   2  32  ar  
  4   3   4  1   
  5   3   5  ar  
  6   5   6  1   
  7   5  28  ar  
  8   6   7  2   
  9   6   8  am  
 10   8   9  1   
 11   8  10  1   
 12  10  11  2   
 13  10  27  1   
 14  11  12  1   
 15  11  17  1   
 16  12  13  2   
 17  12  14  am  
 18  14  15  1   
 19  14  16  1   
 20  17  18  1   
 21  18  19  ar  
 22  18  27  ar  
 23  19  20  1   
 24  19  21  ar  
 25  21  22  1   
 26  21  23  ar  
 27  23  24  1   
 28  23  25  ar  
 29  25  26  1   
 30  25  27  ar  
 31  28  29  1   
 32  28  30  ar  
 33  30  31  1   
 34  30  32  ar  
 35  32  33  1   
@<TRIPOS>SUBSTRUCTURE
  1 ****   8 GROUP 4 **** **** 0

# MOE 2022.02 (io_trps.svl 2020.11)

@<TRIPOS>MOLECULE
LCSOL111
31 32 1 0 0 
SMALL
USER_CHARGES


@<TRIPOS>ATOM
  1 H        3.7490    -2.1990     1.7880 H     1 <1>   0.4000 
  2 O        2.8770    -1.8270     1.5750 O.3   1 <1>  -0.6800 
  3 C        3.0680    -0.9750     0.4440 C.3   1 <1>   0.5670 
  4 H        3.2490    -1.6480    -0.4030 H     1 <1>   0.0000 
  5 C        4.3460    -0.1530     0.5790 C.ar  1 <1>  -0.1440 
  6 C        5.0070     0.2900    -0.5800 C.ar  1 <1>  -0.1500 
  7 H        4.6090     0.0490    -1.5630 H     1 <1>   0.1500 
  8 C        6.1720     1.0540    -0.4880 C.ar  1 <1>  -0.1500 
  9 H        6.6720     1.3920    -1.3920 H     1 <1>   0.1500 
 10 C        6.6890     1.3900     0.7610 C.ar  1 <1>  -0.1500 
 11 H        7.5930     1.9890     0.8310 H     1 <1>   0.1500 
 12 C        6.0410     0.9680     1.9200 C.ar  1 <1>  -0.1500 
 13 H        6.4380     1.2410     2.8940 H     1 <1>   0.1500 
 14 C        4.8760     0.2040     1.8310 C.ar  1 <1>  -0.1500 
 15 H        4.3700    -0.0960     2.7470 H     1 <1>   0.1500 
 16 C        1.7930    -0.1850     0.1930 C.ar  1 <1>  -0.1440 
 17 C        1.6120     1.0790     0.7980 C.ar  1 <1>  -0.1500 
 18 H        2.3760     1.4700     1.4670 H     1 <1>   0.1500 
 19 C        0.4740     1.8600     0.5580 C.ar  1 <1>  -0.1440 
 20 C        0.3070     3.2020     1.2050 C.3   1 <1>   0.1440 
 21 H        1.1850     3.4760     1.7990 H     1 <1>   0.0000 
 22 H        0.1670     3.9750     0.4420 H     1 <1>   0.0000 
 23 H       -0.5620     3.1930     1.8720 H     1 <1>   0.0000 
 24 C       -0.5120     1.3650    -0.2910 C.ar  1 <1>  -0.1500 
 25 H       -1.4070     1.9470    -0.4960 H     1 <1>   0.1500 
 26 C       -0.3670     0.1050    -0.8730 C.ar  1 <1>  -0.1500 
 27 H       -1.1640    -0.2680    -1.5110 H     1 <1>   0.1500 
 28 C        0.7630    -0.6900    -0.6280 C.ar  1 <1>   0.1000 
 29 N        0.8060    -1.9540    -1.2010 N.pl3 1 <1>  -0.9000 
 30 H        0.1270    -2.2200    -1.9000 H     1 <1>   0.4000 
 31 H        1.4920    -2.6370    -0.9150 H     1 <1>   0.4000 
@<TRIPOS>BOND
  1   1   2  1   
  2   2   3  1   
  3   3   4  1   
  4   3   5  1   
  5   3  16  1   
  6   5   6  ar  
  7   5  14  ar  
  8   6   7  1   
  9   6   8  ar  
 10   8   9  1   
 11   8  10  ar  
 12  10  11  1   
 13  10  12  ar  
 14  12  13  1   
 15  12  14  ar  
 16  14  15  1   
 17  16  17  ar  
 18  16  28  ar  
 19  17  18  1   
 20  17  19  ar  
 21  19  20  1   
 22  19  24  ar  
 23  20  21  1   
 24  20  22  1   
 25  20  23  1   
 26  24  25  1   
 27  24  26  ar  
 28  26  27  1   
 29  26  28  ar  
 30  28  29  1   
 31  29  30  1   
 32  29  31  1   
@<TRIPOS>SUBSTRUCTURE
  1 ****  16 GROUP 4 **** **** 0

# MOE 2022.02 (io_trps.svl 2020.11)

@<TRIPOS>MOLECULE
LCSOL112
24 26 1 0 0 
SMALL
USER_CHARGES


@<TRIPOS>ATOM
  1 H       -5.0230     0.5920    -0.0340 H     1 <1>   0.1500 
  2 C       -4.4930     1.5410    -0.0240 C.ar  1 <1>  -0.1500 
  3 C       -5.2100     2.7350    -0.0190 C.ar  1 <1>  -0.1500 
  4 H       -6.2980     2.7080    -0.0250 H     1 <1>   0.1500 
  5 C       -4.5540     3.9700    -0.0050 C.ar  1 <1>  -0.1500 
  6 H       -5.1170     4.8980    -0.0010 H     1 <1>   0.1500 
  7 C       -3.1540     3.9590     0.0030 C.ar  1 <1>  -0.1520 
  8 C       -2.4070     2.7820    -0.0030 C.ar  1 <1>   0.0000 
  9 C       -3.0940     1.5500    -0.0160 C.ar  1 <1>  -0.1500 
 10 H       -2.5420     0.6150    -0.0200 H     1 <1>   0.1500 
 11 C       -1.0240     3.1520     0.0080 C.ar  1 <1>   0.0000 
 12 C        0.1880     2.4270     0.0080 C.ar  1 <1>  -0.1500 
 13 H        0.1580     1.3420    -0.0030 H     1 <1>   0.1500 
 14 C        1.4150     3.1020     0.0210 C.ar  1 <1>   0.1000 
 15 N        2.6030     2.3910     0.0210 N.pl3 1 <1>  -0.9000 
 16 H        2.5960     1.3810     0.0100 H     1 <1>   0.4000 
 17 H        3.4910     2.8710     0.0320 H     1 <1>   0.4000 
 18 C        1.4270     4.4970     0.0340 C.ar  1 <1>  -0.1500 
 19 H        2.3760     5.0280     0.0440 H     1 <1>   0.1500 
 20 C        0.2440     5.2470     0.0340 C.ar  1 <1>  -0.1500 
 21 H        0.2740     6.3310     0.0440 H     1 <1>   0.1500 
 22 C       -0.9640     4.5440     0.0210 C.ar  1 <1>  -0.1520 
 23 N       -2.2600     5.0030     0.0170 N.pl3 1 <1>   0.0330 
 24 H       -2.5200     5.9780     0.0250 H     1 <1>   0.2700 
@<TRIPOS>BOND
  1   1   2  1   
  2   2   3  ar  
  3   2   9  ar  
  4   3   4  1   
  5   3   5  ar  
  6   5   6  1   
  7   5   7  ar  
  8   7   8  ar  
  9   7  23  1   
 10   8   9  ar  
 11   8  11  1   
 12   9  10  1   
 13  11  12  ar  
 14  11  22  ar  
 15  12  13  1   
 16  12  14  ar  
 17  14  15  1   
 18  14  18  ar  
 19  15  16  1   
 20  15  17  1   
 21  18  19  1   
 22  18  20  ar  
 23  20  21  1   
 24  20  22  ar  
 25  22  23  1   
 26  23  24  1   
@<TRIPOS>SUBSTRUCTURE
  1 ****  11 GROUP 4 **** **** 0

# MOE 2022.02 (io_trps.svl 2020.11)

@<TRIPOS>MOLECULE
LCSOL113
29 30 1 0 0 
SMALL
USER_CHARGES


@<TRIPOS>ATOM
  1 H       -3.2960    -5.3100    -0.1000 H     1 <1>   0.1500 
  2 C       -2.6640    -4.4270    -0.1490 C.ar  1 <1>   0.1600 
  3 N       -3.2310    -3.2900     0.3080 N.ar  1 <1>  -0.6200 
  4 C       -2.4810    -2.1700     0.2450 C.ar  1 <1>   0.1600 
  5 H       -2.9640    -1.2680     0.6080 H     1 <1>   0.1500 
  6 C       -1.1860    -2.1370    -0.2430 C.ar  1 <1>  -0.1500 
  7 H       -0.6380    -1.2020    -0.2690 H     1 <1>   0.1500 
  8 C       -0.6180    -3.3290    -0.6900 C.ar  1 <1>   0.1020 
  9 S        1.0460    -3.3100    -1.3300 S.3   1 <1>  -0.3320 
 10 C        1.8230    -4.5490    -0.2330 C.3   1 <1>   0.2300 
 11 H        1.3880    -5.5280    -0.4630 H     1 <1>   0.0000 
 12 H        1.5780    -4.3090     0.8080 H     1 <1>   0.0000 
 13 C        3.3470    -4.6090    -0.4190 C.3   1 <1>   0.0000 
 14 H        3.5710    -4.7610    -1.4840 H     1 <1>   0.0000 
 15 C        3.9170    -5.8140     0.3490 C.3   1 <1>   0.0000 
 16 H        3.6130    -5.7450     1.4010 H     1 <1>   0.0000 
 17 H        3.5100    -6.7500    -0.0510 H     1 <1>   0.0000 
 18 C        5.4380    -5.8400     0.2760 C.3   1 <1>   0.2800 
 19 H        5.7870    -6.0070    -0.7500 H     1 <1>   0.0000 
 20 H        5.8260    -6.6550     0.8940 H     1 <1>   0.0000 
 21 O        5.9810    -4.6200     0.7740 O.3   1 <1>  -0.5600 
 22 C        5.5710    -3.4950    -0.0020 C.3   1 <1>   0.2800 
 23 H        5.9250    -3.6120    -1.0330 H     1 <1>   0.0000 
 24 H        6.0570    -2.6080     0.4160 H     1 <1>   0.0000 
 25 C        4.0580    -3.3280     0.0500 C.3   1 <1>   0.0000 
 26 H        3.7700    -2.4670    -0.5630 H     1 <1>   0.0000 
 27 H        3.7600    -3.1120     1.0840 H     1 <1>   0.0000 
 28 C       -1.3770    -4.4970    -0.6530 C.ar  1 <1>  -0.1500 
 29 H       -0.9910    -5.4420    -1.0180 H     1 <1>   0.1500 
@<TRIPOS>BOND
  1   1   2  1   
  2   2   3  ar  
  3   2  28  ar  
  4   3   4  ar  
  5   4   5  1   
  6   4   6  ar  
  7   6   7  1   
  8   6   8  ar  
  9   8   9  1   
 10   8  28  ar  
 11   9  10  1   
 12  10  11  1   
 13  10  12  1   
 14  10  13  1   
 15  13  14  1   
 16  13  15  1   
 17  13  25  1   
 18  15  16  1   
 19  15  17  1   
 20  15  18  1   
 21  18  19  1   
 22  18  20  1   
 23  18  21  1   
 24  21  22  1   
 25  22  23  1   
 26  22  24  1   
 27  22  25  1   
 28  25  26  1   
 29  25  27  1   
 30  28  29  1   
@<TRIPOS>SUBSTRUCTURE
  1 ****  10 GROUP 4 **** **** 0

# MOE 2022.02 (io_trps.svl 2020.11)

@<TRIPOS>MOLECULE
LCSOL114
21 21 1 0 0 
SMALL
USER_CHARGES


@<TRIPOS>ATOM
  1 H       -1.2200    -0.5550    -1.5790 H     1 <1>   0.1500 
  2 C       -0.9390     0.2230    -0.8830 C.2   1 <1>  -0.3020 
  3 C       -1.6680     0.9260     0.0610 C.2   1 <1>   0.0460 
  4 C       -3.1230     0.7920     0.4060 C.3   1 <1>   1.2010 
  5 F       -3.7100     1.9800     0.7090 F     1 <1>  -0.3400 
  6 F       -3.3210    -0.0320     1.4690 F     1 <1>  -0.3400 
  7 F       -3.8380     0.2630    -0.6260 F     1 <1>  -0.3400 
  8 N       -0.8270     1.8250     0.7040 N.2   1 <1>  -0.5650 
  9 C        0.3670     1.6750     0.1670 C.2   1 <1>   0.0070 
 10 C        1.6060     2.4350     0.5380 C.3   1 <1>   0.1800 
 11 H        1.3320     3.1530     1.3220 H     1 <1>   0.0000 
 12 C        2.1510     3.2290    -0.6480 C.3   1 <1>   0.0000 
 13 H        3.0130     3.8340    -0.3450 H     1 <1>   0.0000 
 14 H        1.3890     3.9070    -1.0490 H     1 <1>   0.0000 
 15 H        2.4740     2.5730    -1.4640 H     1 <1>   0.0000 
 16 C        2.6750     1.5060     1.1140 C.3   1 <1>   0.0000 
 17 H        2.2890     0.9520     1.9770 H     1 <1>   0.0000 
 18 H        3.0170     0.7730     0.3740 H     1 <1>   0.0000 
 19 H        3.5470     2.0790     1.4460 H     1 <1>   0.0000 
 20 N        0.3370     0.7040    -0.8040 N.pl3 1 <1>   0.0330 
 21 H        1.1270     0.4030    -1.3600 H     1 <1>   0.2700 
@<TRIPOS>BOND
  1   1   2  1   
  2   2   3  2   
  3   2  20  1   
  4   3   4  1   
  5   3   8  1   
  6   4   5  1   
  7   4   6  1   
  8   4   7  1   
  9   8   9  2   
 10   9  10  1   
 11   9  20  1   
 12  10  11  1   
 13  10  12  1   
 14  10  16  1   
 15  12  13  1   
 16  12  14  1   
 17  12  15  1   
 18  16  17  1   
 19  16  18  1   
 20  16  19  1   
 21  20  21  1   
@<TRIPOS>SUBSTRUCTURE
  1 ****   8 GROUP 4 **** **** 0

# MOE 2022.02 (io_trps.svl 2020.11)

@<TRIPOS>MOLECULE
LCSOL115
20 20 1 0 0 
SMALL
USER_CHARGES


@<TRIPOS>ATOM
  1 H       -3.6020     1.0690    -0.0350 H     1 <1>   0.1500 
  2 C       -3.0330     1.9940    -0.0230 C.ar  1 <1>   0.1600 
  3 N       -3.7680     3.1220     0.0370 N.ar  1 <1>  -0.6200 
  4 C       -3.0840     4.2840     0.0510 C.ar  1 <1>   0.1600 
  5 H       -3.6980     5.1790     0.0980 H     1 <1>   0.1500 
  6 C       -1.6980     4.3720     0.0090 C.ar  1 <1>  -0.1500 
  7 H       -1.2400     5.3540     0.0230 H     1 <1>   0.1500 
  8 C       -0.9490     3.1940    -0.0490 C.ar  1 <1>  -0.1440 
  9 C        0.5620     3.1510    -0.1040 C.3   1 <1>   0.1440 
 10 H        0.8470     2.6660    -1.0470 H     1 <1>   0.0000 
 11 H        0.9060     2.5030     0.7130 H     1 <1>   0.0000 
 12 C        1.2880     4.4920    -0.0020 C.3   1 <1>   0.0000 
 13 H        1.0180     5.0000     0.9310 H     1 <1>   0.0000 
 14 H        0.9920     5.1480    -0.8290 H     1 <1>   0.0000 
 15 C        2.7860     4.2990    -0.0410 C.3   1 <1>   1.0200 
 16 F        3.1750     3.7080    -1.1910 F     1 <1>  -0.3400 
 17 F        3.4190     5.4890     0.0440 F     1 <1>  -0.3400 
 18 F        3.2090     3.5330     0.9860 F     1 <1>  -0.3400 
 19 C       -1.6460     1.9790    -0.0680 C.ar  1 <1>  -0.1500 
 20 H       -1.1220     1.0300    -0.1170 H     1 <1>   0.1500 
@<TRIPOS>BOND
  1   1   2  1   
  2   2   3  ar  
  3   2  19  ar  
  4   3   4  ar  
  5   4   5  1   
  6   4   6  ar  
  7   6   7  1   
  8   6   8  ar  
  9   8   9  1   
 10   8  19  ar  
 11   9  10  1   
 12   9  11  1   
 13   9  12  1   
 14  12  13  1   
 15  12  14  1   
 16  12  15  1   
 17  15  16  1   
 18  15  17  1   
 19  15  18  1   
 20  19  20  1   
@<TRIPOS>SUBSTRUCTURE
  1 ****   9 GROUP 4 **** **** 0

# MOE 2022.02 (io_trps.svl 2020.11)

@<TRIPOS>MOLECULE
LCSOL116
18 19 1 0 0 
SMALL
USER_CHARGES


@<TRIPOS>ATOM
  1 H        0.0570     4.5040    -0.6170 H     1 <1>   0.1500 
  2 C       -0.0450     3.4280    -0.6170 C.2   1 <1>  -0.1100 
  3 S       -1.5480     2.6310    -0.7980 S.3   1 <1>   0.1810 
  4 N       -0.8620     1.1110    -0.6920 N.2   1 <1>  -0.2210 
  5 N        0.4490     1.1510    -0.5260 N.2   1 <1>  -0.2270 
  6 C        0.9380     2.4560    -0.4790 C.2   1 <1>   0.1410 
  7 C        2.3540     2.7780    -0.3040 C.2   1 <1>   0.7160 
  8 O        2.7410     3.9470    -0.2760 O.2   1 <1>  -0.5700 
  9 N        3.2350     1.7360    -0.1720 N.am  1 <1>  -0.5100 
 10 C        3.1240     0.2970    -0.1560 C.3   1 <1>   0.2250 
 11 H        2.7990    -0.1280    -1.1090 H     1 <1>   0.0000 
 12 H        2.5240    -0.0930     0.6700 H     1 <1>   0.0000 
 13 C        4.6360     0.2520     0.0810 C.3   1 <1>   0.0000 
 14 H        5.2040    -0.2560    -0.7050 H     1 <1>   0.0000 
 15 H        4.9290    -0.1580     1.0530 H     1 <1>   0.0000 
 16 C        4.6710     1.7790     0.0050 C.3   1 <1>   0.2250 
 17 H        4.9810     2.2850     0.9220 H     1 <1>   0.0000 
 18 H        5.1980     2.1910    -0.8600 H     1 <1>   0.0000 
@<TRIPOS>BOND
  1   1   2  1   
  2   2   3  1   
  3   2   6  2   
  4   3   4  1   
  5   4   5  2   
  6   5   6  1   
  7   6   7  1   
  8   7   8  2   
  9   7   9  am  
 10   9  10  1   
 11   9  16  1   
 12  10  11  1   
 13  10  12  1   
 14  10  13  1   
 15  13  14  1   
 16  13  15  1   
 17  13  16  1   
 18  16  17  1   
 19  16  18  1   
@<TRIPOS>SUBSTRUCTURE
  1 ****   6 GROUP 4 **** **** 0

# MOE 2022.02 (io_trps.svl 2020.11)

@<TRIPOS>MOLECULE
LCSOL117
19 19 1 0 0 
SMALL
USER_CHARGES


@<TRIPOS>ATOM
  1 H        4.4940    -2.3600     0.8380 H     1 <1>   0.3700 
  2 N        4.3020    -2.2710    -0.1500 N.am  1 <1>  -0.8000 
  3 H        5.0500    -1.9830    -0.7680 H     1 <1>   0.3700 
  4 C        3.0810    -2.5200    -0.7030 C.2   1 <1>   0.5690 
  5 O        2.8930    -2.3960    -1.9070 O.2   1 <1>  -0.5700 
  6 C        2.0190    -2.9400     0.2860 C.3   1 <1>   0.0610 
  7 H        2.4090    -3.7900     0.8600 H     1 <1>   0.0000 
  8 H        1.8720    -2.1110     0.9900 H     1 <1>   0.0000 
  9 C        0.6970    -3.3330    -0.3590 C.3   1 <1>   0.0000 
 10 H        0.8300    -4.1780    -1.0520 H     1 <1>   0.0000 
 11 C       -0.4820    -3.5810     0.6120 C.3   1 <1>   0.0000 
 12 H       -0.6890    -4.6310     0.8360 H     1 <1>   0.0000 
 13 H       -0.4350    -3.0190     1.5520 H     1 <1>   0.0000 
 14 C       -1.4100    -2.9330    -0.4440 C.3   1 <1>   0.5960 
 15 F       -1.9950    -3.7970    -1.3050 F     1 <1>  -0.2980 
 16 F       -2.3890    -2.1420     0.0460 F     1 <1>  -0.2980 
 17 C       -0.1590    -2.2010    -0.9820 C.3   1 <1>   0.0000 
 18 H       -0.0090    -1.2110    -0.5380 H     1 <1>   0.0000 
 19 H       -0.1010    -2.1160    -2.0700 H     1 <1>   0.0000 
@<TRIPOS>BOND
  1   1   2  1   
  2   2   3  1   
  3   2   4  am  
  4   4   5  2   
  5   4   6  1   
  6   6   7  1   
  7   6   8  1   
  8   6   9  1   
  9   9  10  1   
 10   9  11  1   
 11   9  17  1   
 12  11  12  1   
 13  11  13  1   
 14  11  14  1   
 15  14  15  1   
 16  14  16  1   
 17  14  17  1   
 18  17  18  1   
 19  17  19  1   
@<TRIPOS>SUBSTRUCTURE
  1 ****   9 GROUP 4 **** **** 0

# MOE 2022.02 (io_trps.svl 2020.11)

@<TRIPOS>MOLECULE
LCSOL118
21 21 1 0 0 
SMALL
USER_CHARGES


@<TRIPOS>ATOM
  1 H       -5.1940    -0.5370     0.2480 H     1 <1>   0.1500 
  2 C       -4.9390     0.5110     0.1550 C.2   1 <1>   0.0770 
  3 N       -3.6330     0.9280     0.1470 N.2   1 <1>  -0.5650 
  4 C       -3.6880     2.2340     0.0220 C.2   1 <1>   0.2420 
  5 S       -2.3240     3.2980    -0.0440 S.3   1 <1>  -0.2860 
  6 C       -0.9710     2.0970     0.1220 C.3   1 <1>   0.4300 
  7 H       -1.0900     1.5440     1.0600 H     1 <1>   0.0000 
  8 H       -1.0200     1.3800    -0.7050 H     1 <1>   0.0000 
  9 C        0.3360     2.7710     0.1130 C.1   1 <1>  -0.2000 
 10 C        1.4040     3.3220     0.1060 C.1   1 <1>  -0.2000 
 11 C        2.7000     3.9990     0.0980 C.3   1 <1>   0.2000 
 12 H        3.4570     3.3990     0.6130 H     1 <1>   0.0000 
 13 H        3.0430     4.1720    -0.9270 H     1 <1>   0.0000 
 14 H        2.6360     4.9690     0.6020 H     1 <1>   0.0000 
 15 N       -4.9820     2.6790    -0.0520 N.pl3 1 <1>   0.0480 
 16 C       -5.4340     4.0420    -0.1930 C.3   1 <1>   0.2560 
 17 H       -5.0420     4.4460    -1.1300 H     1 <1>   0.0000 
 18 H       -5.0790     4.6210     0.6630 H     1 <1>   0.0000 
 19 H       -6.5270     4.0610    -0.2170 H     1 <1>   0.0000 
 20 C       -5.7950     1.5800     0.0340 C.2   1 <1>  -0.3020 
 21 H       -6.8740     1.6440     0.0030 H     1 <1>   0.1500 
@<TRIPOS>BOND
  1   1   2  1   
  2   2   3  1   
  3   2  20  2   
  4   3   4  2   
  5   4   5  1   
  6   4  15  1   
  7   5   6  1   
  8   6   7  1   
  9   6   8  1   
 10   6   9  1   
 11   9  10  3   
 12  10  11  1   
 13  11  12  1   
 14  11  13  1   
 15  11  14  1   
 16  15  16  1   
 17  15  20  1   
 18  16  17  1   
 19  16  18  1   
 20  16  19  1   
 21  20  21  1   
@<TRIPOS>SUBSTRUCTURE
  1 ****   5 GROUP 4 **** **** 0

# MOE 2022.02 (io_trps.svl 2020.11)

@<TRIPOS>MOLECULE
LCSOL119
17 17 1 0 0 
SMALL
USER_CHARGES


@<TRIPOS>ATOM
  1 H        4.4240    -1.6050     0.4560 H     1 <1>   0.5000 
  2 O        3.5170    -1.8820     0.7060 O.3   1 <1>  -0.6500 
  3 C        3.3360    -3.0350     0.0270 C.2   1 <1>   0.6590 
  4 O        4.2450    -3.4990    -0.6450 O.2   1 <1>  -0.5700 
  5 C        1.9630    -3.6510     0.2310 C.3   1 <1>   0.3310 
  6 H        1.8010    -3.8070     1.3050 H     1 <1>   0.0000 
  7 H        1.9900    -4.6440    -0.2350 H     1 <1>   0.0000 
  8 N        0.9210    -2.8400    -0.4230 N.3   1 <1>  -0.6890 
  9 C       -0.4160    -3.4420    -0.1930 C.3   1 <1>   0.2100 
 10 H       -0.8630    -3.8920    -1.0840 H     1 <1>   0.0000 
 11 H       -0.4860    -4.1590     0.6340 H     1 <1>   0.0000 
 12 C       -0.9620    -2.0400     0.1660 C.3   1 <1>   0.5960 
 13 F       -1.5750    -1.3600    -0.8320 F     1 <1>  -0.2980 
 14 F       -1.7840    -1.9830     1.2410 F     1 <1>  -0.2980 
 15 C        0.5210    -1.6890     0.4270 C.3   1 <1>   0.2100 
 16 H        0.7940    -1.7470     1.4880 H     1 <1>   0.0000 
 17 H        0.8340    -0.7150     0.0380 H     1 <1>   0.0000 
@<TRIPOS>BOND
  1   1   2  1   
  2   2   3  1   
  3   3   4  2   
  4   3   5  1   
  5   5   6  1   
  6   5   7  1   
  7   5   8  1   
  8   8   9  1   
  9   8  15  1   
 10   9  10  1   
 11   9  11  1   
 12   9  12  1   
 13  12  13  1   
 14  12  14  1   
 15  12  15  1   
 16  15  16  1   
 17  15  17  1   
@<TRIPOS>SUBSTRUCTURE
  1 ****   8 GROUP 4 **** **** 0

# MOE 2022.02 (io_trps.svl 2020.11)

@<TRIPOS>MOLECULE
LCSOL120
22 22 1 0 0 
SMALL
USER_CHARGES


@<TRIPOS>ATOM
  1 H        0.0300    -0.5270    -0.9080 H     1 <1>   0.4000 
  2 N        0.6760    -1.0750    -0.3440 N.2   1 <1>  -0.8500 
  3 C        1.7720    -0.4190    -0.1830 C.2   1 <1>   0.7110 
  4 N        2.7350    -1.0430     0.5630 N.2   1 <1>  -0.6610 
  5 C        3.8420    -0.3900     0.7320 C.2   1 <1>   0.3760 
  6 H        4.6380    -0.8640     1.3290 H     1 <1>   0.0600 
  7 C        4.1660     0.9640     0.1970 C.2   1 <1>  -0.1240 
  8 C        5.4790     1.6040     0.5150 C.3   1 <1>   0.1380 
  9 H        5.6680     1.5210     1.5920 H     1 <1>   0.0000 
 10 H        5.4300     2.6790     0.2950 H     1 <1>   0.0000 
 11 C        6.6350     0.9830    -0.2670 C.3   1 <1>   0.0000 
 12 H        6.4500     1.0550    -1.3470 H     1 <1>   0.0000 
 13 H        6.7170    -0.0900    -0.0510 H     1 <1>   0.0000 
 14 C        7.9590     1.6620     0.0630 C.3   1 <1>   0.2800 
 15 H        7.9280     2.7250    -0.1970 H     1 <1>   0.0000 
 16 H        8.1950     1.5610     1.1270 H     1 <1>   0.0000 
 17 O        8.9910     1.0420    -0.6900 O.3   1 <1>  -0.6800 
 18 H        9.8240     1.4960    -0.4690 H     1 <1>   0.4000 
 19 C        3.1630     1.4980    -0.5110 C.2   1 <1>  -0.0500 
 20 H        3.2150     2.4820    -0.9650 H     1 <1>   0.1500 
 21 N        1.9880     0.8250    -0.7070 N.pl3 1 <1>  -0.5500 
 22 H        1.2650     1.2670    -1.2550 H     1 <1>   0.4000 
@<TRIPOS>BOND
  1   1   2  1   
  2   2   3  2   
  3   3   4  1   
  4   3  21  1   
  5   4   5  2   
  6   5   6  1   
  7   5   7  1   
  8   7   8  1   
  9   7  19  2   
 10   8   9  1   
 11   8  10  1   
 12   8  11  1   
 13  11  12  1   
 14  11  13  1   
 15  11  14  1   
 16  14  15  1   
 17  14  16  1   
 18  14  17  1   
 19  17  18  1   
 20  19  20  1   
 21  19  21  1   
 22  21  22  1   
@<TRIPOS>SUBSTRUCTURE
  1 ****   7 GROUP 4 **** **** 0

# MOE 2022.02 (io_trps.svl 2020.11)

@<TRIPOS>MOLECULE
LCSOL121
22 23 1 0 0 
SMALL
USER_CHARGES


@<TRIPOS>ATOM
  1 H       -2.1120     2.6980    -1.1060 H     1 <1>   0.3700 
  2 N       -1.1520     2.5530    -0.8280 N.am  1 <1>  -0.5390 
  3 C       -0.6420     1.2920    -0.8010 C.2   1 <1>   0.2100 
  4 S       -1.7090     0.0230    -1.2500 S.3   1 <1>  -0.3310 
  5 C       -2.3440    -0.4380     0.3800 C.3   1 <1>   0.2300 
  6 H       -1.5320    -0.7810     1.0280 H     1 <1>   0.0000 
  7 H       -2.8480     0.4110     0.8500 H     1 <1>   0.0000 
  8 H       -3.0650    -1.2520     0.2680 H     1 <1>   0.0000 
  9 C        0.6330     1.1160    -0.4700 C.2   1 <1>  -0.1240 
 10 C        1.3510     2.3490    -0.1010 C.2   1 <1>   0.3750 
 11 N        0.8730     3.5440    -0.1180 N.2   1 <1>  -0.6610 
 12 C       -0.4400     3.6870    -0.5060 C.2   1 <1>   0.8410 
 13 O       -0.9990     4.7780    -0.5670 O.2   1 <1>  -0.5700 
 14 C        2.7550     2.0220     0.3050 C.3   1 <1>   0.0610 
 15 H        3.0670     2.5960     1.1800 H     1 <1>   0.0000 
 16 H        3.4280     2.2200    -0.5350 H     1 <1>   0.0000 
 17 C        2.6430     0.5240     0.6050 C.3   1 <1>   0.0000 
 18 H        3.6010     0.0100     0.4740 H     1 <1>   0.0000 
 19 H        2.3370     0.3830     1.6500 H     1 <1>   0.0000 
 20 C        1.5600    -0.0360    -0.3250 C.3   1 <1>   0.1380 
 21 H        1.9920    -0.2960    -1.2970 H     1 <1>   0.0000 
 22 H        1.0860    -0.9210     0.1080 H     1 <1>   0.0000 
@<TRIPOS>BOND
  1   1   2  1   
  2   2   3  1   
  3   2  12  am  
  4   3   4  1   
  5   3   9  2   
  6   4   5  1   
  7   5   6  1   
  8   5   7  1   
  9   5   8  1   
 10   9  10  1   
 11   9  20  1   
 12  10  11  2   
 13  10  14  1   
 14  11  12  1   
 15  12  13  2   
 16  14  15  1   
 17  14  16  1   
 18  14  17  1   
 19  17  18  1   
 20  17  19  1   
 21  17  20  1   
 22  20  21  1   
 23  20  22  1   
@<TRIPOS>SUBSTRUCTURE
  1 ****   9 GROUP 4 **** **** 0

# MOE 2022.02 (io_trps.svl 2020.11)

@<TRIPOS>MOLECULE
LCSOL122
23 23 1 0 0 
SMALL
USER_CHARGES


@<TRIPOS>ATOM
  1 H       -5.8680     1.0570     0.2150 H     1 <1>   0.1500 
  2 C       -4.9600     1.6500     0.1570 C.ar  1 <1>   0.1600 
  3 N       -4.1810     1.4030    -0.9170 N.ar  1 <1>  -0.6200 
  4 C       -3.0440     2.1310    -1.0220 C.ar  1 <1>   0.1600 
  5 H       -2.4480     1.9140    -1.9060 H     1 <1>   0.1500 
  6 C       -2.6360     3.0910    -0.0980 C.ar  1 <1>  -0.1440 
  7 C       -1.3340     3.8360    -0.2490 C.3   1 <1>   0.4140 
  8 H       -1.3060     4.6700     0.4640 H     1 <1>   0.0000 
  9 N       -1.2140     4.4370    -1.5880 N.3   1 <1>  -0.9900 
 10 H       -0.2840     4.8610    -1.6430 H     1 <1>   0.3600 
 11 H       -1.8820     5.2020    -1.6650 H     1 <1>   0.3600 
 12 C       -0.1210     2.9250     0.0460 C.3   1 <1>   0.2800 
 13 H       -0.2400     2.4440     1.0250 H     1 <1>   0.0000 
 14 H       -0.0240     2.1410    -0.7160 H     1 <1>   0.0000 
 15 O        1.0720     3.7240     0.0670 O.3   1 <1>  -0.5600 
 16 C        2.2260     2.9270     0.3030 C.3   1 <1>   0.2800 
 17 H        2.1550     2.4310     1.2760 H     1 <1>   0.0000 
 18 H        2.3490     2.1850    -0.4910 H     1 <1>   0.0000 
 19 H        3.1020     3.5810     0.3080 H     1 <1>   0.0000 
 20 C       -3.4730     3.3110     1.0010 C.ar  1 <1>  -0.1500 
 21 H       -3.2120     4.0460     1.7580 H     1 <1>   0.1500 
 22 C       -4.6530     2.5840     1.1310 C.ar  1 <1>  -0.1500 
 23 H       -5.3170     2.7410     1.9740 H     1 <1>   0.1500 
@<TRIPOS>BOND
  1   1   2  1   
  2   2   3  ar  
  3   2  22  ar  
  4   3   4  ar  
  5   4   5  1   
  6   4   6  ar  
  7   6   7  1   
  8   6  20  ar  
  9   7   8  1   
 10   7   9  1   
 11   7  12  1   
 12   9  10  1   
 13   9  11  1   
 14  12  13  1   
 15  12  14  1   
 16  12  15  1   
 17  15  16  1   
 18  16  17  1   
 19  16  18  1   
 20  16  19  1   
 21  20  21  1   
 22  20  22  ar  
 23  22  23  1   
@<TRIPOS>SUBSTRUCTURE
  1 ****   6 GROUP 4 **** **** 0

# MOE 2022.02 (io_trps.svl 2020.11)

@<TRIPOS>MOLECULE
LCSOL123
19 20 1 0 0 
SMALL
USER_CHARGES


@<TRIPOS>ATOM
  1 H        1.6260     1.8150    -0.2690 H     1 <1>   0.1500 
  2 C        0.5440     1.8840    -0.2370 C.2   1 <1>  -0.2880 
  3 C       -0.2320     0.8380    -0.5690 C.2   1 <1>  -0.2880 
  4 H        0.2080    -0.1110    -0.8570 H     1 <1>   0.1500 
  5 C       -1.7400     0.9460    -0.5320 C.3   1 <1>   0.4080 
  6 H       -2.1930     0.2270    -1.2210 H     1 <1>   0.0000 
  7 N       -2.1540     2.3300    -0.8510 N.3   1 <1>  -0.9000 
  8 H       -3.1720     2.3700    -0.8480 H     1 <1>   0.3600 
  9 C       -1.6390     3.0780     0.3150 C.3   1 <1>   0.2700 
 10 H       -2.0750     4.0800     0.3800 H     1 <1>   0.0000 
 11 C       -0.0950     3.1850     0.1880 C.3   1 <1>   0.1380 
 12 H        0.3350     3.5080     1.1430 H     1 <1>   0.0000 
 13 H        0.1560     3.9460    -0.5620 H     1 <1>   0.0000 
 14 C       -2.0790     2.2000     1.4960 C.3   1 <1>   0.0000 
 15 H       -1.3560     2.2090     2.3180 H     1 <1>   0.0000 
 16 H       -3.0430     2.5400     1.8930 H     1 <1>   0.0000 
 17 C       -2.2430     0.7960     0.9020 C.3   1 <1>   0.0000 
 18 H       -3.3040     0.5170     0.9100 H     1 <1>   0.0000 
 19 H       -1.6950     0.0440     1.4800 H     1 <1>   0.0000 
@<TRIPOS>BOND
  1   1   2  1   
  2   2   3  2   
  3   2  11  1   
  4   3   4  1   
  5   3   5  1   
  6   5   6  1   
  7   5   7  1   
  8   5  17  1   
  9   7   8  1   
 10   7   9  1   
 11   9  10  1   
 12   9  11  1   
 13   9  14  1   
 14  11  12  1   
 15  11  13  1   
 16  14  15  1   
 17  14  16  1   
 18  14  17  1   
 19  17  18  1   
 20  17  19  1   
@<TRIPOS>SUBSTRUCTURE
  1 ****   5 GROUP 4 **** **** 0

# MOE 2022.02 (io_trps.svl 2020.11)

@<TRIPOS>MOLECULE
LCSOL124
18 19 1 0 0 
SMALL
USER_CHARGES


@<TRIPOS>ATOM
  1 H       -5.4570     2.4660     0.9030 H     1 <1>   0.1500 
  2 C       -4.8680     1.8710     0.2150 C.2   1 <1>   0.0770 
  3 N       -3.4900     1.9000     0.3050 N.2   1 <1>  -0.5650 
  4 C       -2.9910     1.1100    -0.6150 C.2   1 <1>   0.4410 
  5 O       -1.6900     0.9210    -0.7990 O.3   1 <1>  -0.3210 
  6 C       -0.8770     1.6360     0.1560 C.3   1 <1>   0.2580 
  7 H       -1.0770     1.3160     1.1900 H     1 <1>   0.0000 
  8 C       -0.7380     3.1700    -0.0110 C.3   1 <1>   0.2100 
  9 H       -0.9490     3.5380    -1.0230 H     1 <1>   0.0000 
 10 H       -1.2920     3.7770     0.7100 H     1 <1>   0.0000 
 11 N        0.7050     3.0400     0.2870 N.3   1 <1>  -0.7790 
 12 H        1.3120     3.6360    -0.2740 H     1 <1>   0.3600 
 13 C        0.6410     1.6300    -0.1490 C.3   1 <1>   0.2100 
 14 H        1.2390     0.9420     0.4550 H     1 <1>   0.0000 
 15 H        0.8910     1.4820    -1.2060 H     1 <1>   0.0000 
 16 S       -4.1010     0.3070    -1.6290 S.3   1 <1>  -0.0800 
 17 C       -5.3860     1.0620    -0.7760 C.2   1 <1>  -0.1100 
 18 H       -6.4200     0.8850    -1.0320 H     1 <1>   0.1500 
@<TRIPOS>BOND
  1   1   2  1   
  2   2   3  1   
  3   2  17  2   
  4   3   4  2   
  5   4   5  1   
  6   4  16  1   
  7   5   6  1   
  8   6   7  1   
  9   6   8  1   
 10   6  13  1   
 11   8   9  1   
 12   8  10  1   
 13   8  11  1   
 14  11  12  1   
 15  11  13  1   
 16  13  14  1   
 17  13  15  1   
 18  16  17  1   
 19  17  18  1   
@<TRIPOS>SUBSTRUCTURE
  1 ****   4 GROUP 4 **** **** 0

# MOE 2022.02 (io_trps.svl 2020.11)

@<TRIPOS>MOLECULE
LCSOL125
21 21 1 0 0 
SMALL
USER_CHARGES


@<TRIPOS>ATOM
  1 H       -3.3750     2.9260    -0.0820 H     1 <1>   0.1500 
  2 C       -2.4380     2.3900    -0.0010 C.ar  1 <1>  -0.1500 
  3 C       -2.3970     1.0110     0.0710 C.ar  1 <1>   0.1660 
  4 C       -3.6670     0.2160     0.0400 C.3   1 <1>   0.1440 
  5 H       -4.2910     0.4690     0.9030 H     1 <1>   0.0000 
  6 H       -4.2230     0.4240    -0.8790 H     1 <1>   0.0000 
  7 H       -3.4570    -0.8580     0.0750 H     1 <1>   0.0000 
  8 N       -1.2400     0.3270     0.1740 N.ar  1 <1>  -0.6200 
  9 C       -0.1030     1.0500     0.2040 C.ar  1 <1>   0.4770 
 10 C        1.2090     0.2880     0.3300 C.3   1 <1>   0.4140 
 11 H        1.2590    -0.4560    -0.4730 H     1 <1>   0.0000 
 12 H        1.2070    -0.2480     1.2850 H     1 <1>   0.0000 
 13 N        2.4220     1.1310     0.2640 N.3   1 <1>  -0.9900 
 14 H        2.3660     1.6520    -0.6130 H     1 <1>   0.3600 
 15 H        2.3010     1.8600     0.9720 H     1 <1>   0.3600 
 16 N       -0.0510     2.4000     0.1390 N.ar  1 <1>  -0.6200 
 17 C       -1.2260     3.0520     0.0350 C.ar  1 <1>   0.1660 
 18 C       -1.1810     4.5480    -0.0370 C.3   1 <1>   0.1440 
 19 H       -0.1470     4.9080    -0.0120 H     1 <1>   0.0000 
 20 H       -1.7140     4.9840     0.8140 H     1 <1>   0.0000 
 21 H       -1.6400     4.8960    -0.9670 H     1 <1>   0.0000 
@<TRIPOS>BOND
  1   1   2  1   
  2   2   3  ar  
  3   2  17  ar  
  4   3   4  1   
  5   3   8  ar  
  6   4   5  1   
  7   4   6  1   
  8   4   7  1   
  9   8   9  ar  
 10   9  10  1   
 11   9  16  ar  
 12  10  11  1   
 13  10  12  1   
 14  10  13  1   
 15  13  14  1   
 16  13  15  1   
 17  16  17  ar  
 18  17  18  1   
 19  18  19  1   
 20  18  20  1   
 21  18  21  1   
@<TRIPOS>SUBSTRUCTURE
  1 ****   9 GROUP 4 **** **** 0

# MOE 2022.02 (io_trps.svl 2020.11)

@<TRIPOS>MOLECULE
LCSOL126
21 22 1 0 0 
SMALL
USER_CHARGES


@<TRIPOS>ATOM
  1 H       -1.3470     2.8800     0.1940 H     1 <1>   0.1500 
  2 C       -0.3800     2.3880     0.2130 C.ar  1 <1>  -0.1500 
  3 C       -0.3250     1.0020     0.3870 C.ar  1 <1>   0.1900 
  4 F       -1.4680     0.3180     0.5260 F     1 <1>  -0.1900 
  5 C        0.8860     0.3180     0.4310 C.ar  1 <1>  -0.1500 
  6 H        0.9070    -0.7560     0.5800 H     1 <1>   0.1500 
  7 C        2.0540     1.0500     0.2800 C.ar  1 <1>  -0.1440 
  8 C        2.0140     2.4430     0.1020 C.ar  1 <1>  -0.1440 
  9 C        0.8010     3.1170     0.0770 C.ar  1 <1>   0.1770 
 10 CL       0.7310     4.8240    -0.1110 Cl    1 <1>  -0.1770 
 11 C        3.4040     2.9980     0.0150 C.3   1 <1>   0.1440 
 12 H        3.7100     3.4050     0.9840 H     1 <1>   0.0000 
 13 H        3.5100     3.7580    -0.7650 H     1 <1>   0.0000 
 14 C        4.2080     1.7370    -0.3380 C.3   1 <1>   0.0000 
 15 H        5.2550     1.8100    -0.0260 H     1 <1>   0.0000 
 16 H        4.2070     1.6150    -1.4310 H     1 <1>   0.0000 
 17 C        3.4740     0.5640     0.3380 C.3   1 <1>   0.4140 
 18 H        3.7780     0.4780     1.3880 H     1 <1>   0.0000 
 19 N        3.6860    -0.6980    -0.3500 N.3   1 <1>  -0.9900 
 20 H        3.3930    -0.6070    -1.3230 H     1 <1>   0.3600 
 21 H        4.6830    -0.9040    -0.3780 H     1 <1>   0.3600 
@<TRIPOS>BOND
  1   1   2  1   
  2   2   3  ar  
  3   2   9  ar  
  4   3   4  1   
  5   3   5  ar  
  6   5   6  1   
  7   5   7  ar  
  8   7   8  ar  
  9   7  17  1   
 10   8   9  ar  
 11   8  11  1   
 12   9  10  1   
 13  11  12  1   
 14  11  13  1   
 15  11  14  1   
 16  14  15  1   
 17  14  16  1   
 18  14  17  1   
 19  17  18  1   
 20  17  19  1   
 21  19  20  1   
 22  19  21  1   
@<TRIPOS>SUBSTRUCTURE
  1 ****   7 GROUP 4 **** **** 0

# MOE 2022.02 (io_trps.svl 2020.11)

@<TRIPOS>MOLECULE
LCSOL127
23 24 1 0 0 
SMALL
USER_CHARGES


@<TRIPOS>ATOM
  1 H        7.7340    -0.3910     1.0100 H     1 <1>   0.4000 
  2 O        7.0770     0.3110     1.1580 O.3   1 <1>  -0.6800 
  3 C        6.2180     0.3470     0.0200 C.3   1 <1>   0.2800 
  4 H        6.8570     0.4970    -0.8590 H     1 <1>   0.0000 
  5 C        5.2770     1.5450     0.1830 C.3   1 <1>   0.0000 
  6 H        5.0660     1.7180     1.2470 H     1 <1>   0.0000 
  7 H        5.7800     2.4530    -0.1720 H     1 <1>   0.0000 
  8 C        3.9690     1.3390    -0.5710 C.3   1 <1>   0.0950 
  9 H        4.1790     1.2120    -1.6400 H     1 <1>   0.0000 
 10 H        3.3490     2.2380    -0.4720 H     1 <1>   0.0000 
 11 C        3.2360     0.1190    -0.0510 C.3   1 <1>  -0.1900 
 12 C        4.1140    -0.9560     0.5590 C.3   1 <1>   0.0950 
 13 H        4.2390    -0.7580     1.6300 H     1 <1>   0.0000 
 14 H        3.6440    -1.9430     0.4730 H     1 <1>   0.0000 
 15 C        5.4820    -0.9910    -0.1210 C.3   1 <1>   0.0000 
 16 H        5.3320    -1.2030    -1.1880 H     1 <1>   0.0000 
 17 H        6.0780    -1.8110     0.2950 H     1 <1>   0.0000 
 18 C        1.8460     0.3060     0.5460 C.3   1 <1>  -0.2000 
 19 H        1.5320    -0.3500     1.3490 H     1 <1>   0.1000 
 20 H        1.4210     1.3010     0.5910 H     1 <1>   0.1000 
 21 C        2.0090    -0.3000    -0.7930 C.3   1 <1>   0.4630 
 22 F        1.5950     0.3840    -1.9130 F     1 <1>  -0.2320 
 23 F        1.7150    -1.6280    -0.9930 F     1 <1>  -0.2320 
@<TRIPOS>BOND
  1   1   2  1   
  2   2   3  1   
  3   3   4  1   
  4   3   5  1   
  5   3  15  1   
  6   5   6  1   
  7   5   7  1   
  8   5   8  1   
  9   8   9  1   
 10   8  10  1   
 11   8  11  1   
 12  11  12  1   
 13  11  18  1   
 14  11  21  1   
 15  12  13  1   
 16  12  14  1   
 17  12  15  1   
 18  15  16  1   
 19  15  17  1   
 20  18  19  1   
 21  18  20  1   
 22  18  21  1   
 23  21  22  1   
 24  21  23  1   
@<TRIPOS>SUBSTRUCTURE
  1 ****  11 GROUP 4 **** **** 0

# MOE 2022.02 (io_trps.svl 2020.11)

@<TRIPOS>MOLECULE
LCSOL128
12 12 1 0 0 
SMALL
USER_CHARGES


@<TRIPOS>ATOM
  1 N        2.2330     3.5150     0.4980 N.1   1 <1>  -0.5570 
  2 C        2.3620     2.3700     0.3780 C.1   1 <1>   0.5380 
  3 C        2.5440     0.9620     0.2280 C.2   1 <1>   0.0190 
  4 C        3.8110     0.3110     0.0040 C.2   1 <1>   0.1080 
  5 C        5.1230     1.0350    -0.1020 C.3   1 <1>   1.2010 
  6 F        5.3900     1.7370     1.0310 F     1 <1>  -0.3400 
  7 F        5.1070     1.9330    -1.1220 F     1 <1>  -0.3400 
  8 F        6.1850     0.2180    -0.3160 F     1 <1>  -0.3400 
  9 N        3.7560    -1.0270    -0.1090 N.2   1 <1>  -0.5100 
 10 S        2.1790    -1.5220     0.0520 S.3   1 <1>   0.1810 
 11 C        1.5460     0.0250     0.2730 C.2   1 <1>   0.0980 
 12 BR      -0.2960     0.3600     0.5430 Br    1 <1>  -0.0580 
@<TRIPOS>BOND
  1   1   2  3   
  2   2   3  1   
  3   3   4  1   
  4   3  11  2   
  5   4   5  1   
  6   4   9  2   
  7   5   6  1   
  8   5   7  1   
  9   5   8  1   
 10   9  10  1   
 11  10  11  1   
 12  11  12  1   
@<TRIPOS>SUBSTRUCTURE
  1 ****   4 GROUP 4 **** **** 0

# MOE 2022.02 (io_trps.svl 2020.11)

@<TRIPOS>MOLECULE
LCSOL129
26 27 1 0 0 
SMALL
USER_CHARGES


@<TRIPOS>ATOM
  1 H        2.9840     3.8630    -0.6320 H     1 <1>   0.1500 
  2 C        1.9060     3.7920    -0.5130 C.ar  1 <1>  -0.1500 
  3 C        1.3680     3.0570     0.5400 C.ar  1 <1>  -0.1500 
  4 H        2.0270     2.5530     1.2430 H     1 <1>   0.1500 
  5 C       -0.0160     2.9660     0.6950 C.ar  1 <1>  -0.1500 
  6 H       -0.4110     2.3850     1.5260 H     1 <1>   0.1500 
  7 C       -0.8810     3.6100    -0.2030 C.ar  1 <1>  -0.1440 
  8 C       -2.3820     3.4970    -0.0120 C.3   1 <1>   0.1440 
  9 H       -2.5760     2.8820     0.8790 H     1 <1>   0.0000 
 10 C       -3.0210     4.8670     0.2310 C.3   1 <1>   0.0610 
 11 H       -2.9100     5.5380    -0.6270 H     1 <1>   0.0000 
 12 H       -2.5610     5.3520     1.1000 H     1 <1>   0.0000 
 13 C       -4.4980     4.6960     0.5000 C.2   1 <1>   0.4480 
 14 O       -5.0580     5.3310     1.3930 O.2   1 <1>  -0.5700 
 15 C       -5.2820     3.8370    -0.4540 C.3   1 <1>   0.1220 
 16 H       -6.1870     3.4930     0.0570 H     1 <1>   0.0000 
 17 H       -5.5590     4.4420    -1.3220 H     1 <1>   0.0000 
 18 C       -4.5220     2.6300    -0.9340 C.2   1 <1>   0.4480 
 19 O       -5.1020     1.5800    -1.2100 O.2   1 <1>  -0.5700 
 20 C       -3.0450     2.7980    -1.2020 C.3   1 <1>   0.0610 
 21 H       -2.9340     3.3640    -2.1340 H     1 <1>   0.0000 
 22 H       -2.6030     1.8060    -1.3560 H     1 <1>   0.0000 
 23 C       -0.3240     4.3460    -1.2600 C.ar  1 <1>  -0.1500 
 24 H       -0.9570     4.8590    -1.9800 H     1 <1>   0.1500 
 25 C        1.0610     4.4360    -1.4130 C.ar  1 <1>  -0.1500 
 26 H        1.4820     5.0090    -2.2350 H     1 <1>   0.1500 
@<TRIPOS>BOND
  1   1   2  1   
  2   2   3  ar  
  3   2  25  ar  
  4   3   4  1   
  5   3   5  ar  
  6   5   6  1   
  7   5   7  ar  
  8   7   8  1   
  9   7  23  ar  
 10   8   9  1   
 11   8  10  1   
 12   8  20  1   
 13  10  11  1   
 14  10  12  1   
 15  10  13  1   
 16  13  14  2   
 17  13  15  1   
 18  15  16  1   
 19  15  17  1   
 20  15  18  1   
 21  18  19  2   
 22  18  20  1   
 23  20  21  1   
 24  20  22  1   
 25  23  24  1   
 26  23  25  ar  
 27  25  26  1   
@<TRIPOS>SUBSTRUCTURE
  1 ****   8 GROUP 4 **** **** 0

# MOE 2022.02 (io_trps.svl 2020.11)

@<TRIPOS>MOLECULE
LCSOL130
20 20 1 0 0 
SMALL
USER_CHARGES


@<TRIPOS>ATOM
  1 H        0.3830     0.8750    -0.1410 H     1 <1>   0.1500 
  2 C       -0.1470    -0.0740    -0.1150 C.ar  1 <1>  -0.1500 
  3 C       -1.5430    -0.0870    -0.0620 C.ar  1 <1>  -0.1500 
  4 H       -2.0820     0.8610    -0.0490 H     1 <1>   0.1500 
  5 C       -2.2600    -1.2980    -0.0250 C.ar  1 <1>  -0.1440 
  6 C       -3.7800    -1.2170     0.0250 C.3   1 <1>   0.8240 
  7 F       -4.1810    -0.3970     1.0470 F     1 <1>  -0.3400 
  8 F       -4.2630    -0.6220    -1.1140 F     1 <1>  -0.3400 
  9 C       -4.5310    -2.5740     0.1760 C.3   1 <1>   0.2700 
 10 H       -4.2800    -3.2130    -0.6780 H     1 <1>   0.0000 
 11 H       -4.2020    -3.0780     1.0910 H     1 <1>   0.0000 
 12 N       -6.0060    -2.4850     0.2280 N.3   1 <1>  -0.9900 
 13 H       -6.3280    -1.8760    -0.5270 H     1 <1>   0.3600 
 14 H       -6.4140    -3.4040     0.0630 H     1 <1>   0.3600 
 15 C       -1.5340    -2.5000    -0.0460 C.ar  1 <1>  -0.1500 
 16 H       -2.0290    -3.4670    -0.0220 H     1 <1>   0.1500 
 17 C       -0.1350    -2.4870    -0.0990 C.ar  1 <1>  -0.1500 
 18 H        0.4130    -3.4260    -0.1130 H     1 <1>   0.1500 
 19 C        0.5520    -1.2760    -0.1330 C.ar  1 <1>   0.1770 
 20 CL       2.2710    -1.2680    -0.1970 Cl    1 <1>  -0.1770 
@<TRIPOS>BOND
  1   1   2  1   
  2   2   3  ar  
  3   2  19  ar  
  4   3   4  1   
  5   3   5  ar  
  6   5   6  1   
  7   5  15  ar  
  8   6   7  1   
  9   6   8  1   
 10   6   9  1   
 11   9  10  1   
 12   9  11  1   
 13   9  12  1   
 14  12  13  1   
 15  12  14  1   
 16  15  16  1   
 17  15  17  ar  
 18  17  18  1   
 19  17  19  ar  
 20  19  20  1   
@<TRIPOS>SUBSTRUCTURE
  1 ****   5 GROUP 4 **** **** 0

# MOE 2022.02 (io_trps.svl 2020.11)

@<TRIPOS>MOLECULE
LCSOL131
17 18 1 0 0 
SMALL
USER_CHARGES


@<TRIPOS>ATOM
  1 H       -0.1710    -0.7730     0.0700 H     1 <1>   0.4000 
  2 N        0.8310    -0.9900     0.0420 N.2   1 <1>  -0.8500 
  3 C        1.4620     0.1210    -0.0260 C.2   1 <1>   0.5770 
  4 S        0.6880     1.7130    -0.0650 S.3   1 <1>  -0.1130 
  5 N        2.0920     2.6060    -0.1510 N.pl3 1 <1>  -0.5280 
  6 H        2.1100     3.6160    -0.1930 H     1 <1>   0.4000 
  7 C        3.1150     1.7130    -0.1500 C.2   1 <1>  -0.0380 
  8 C        2.8880     0.3960    -0.0900 C.2   1 <1>  -0.1240 
  9 C        4.0950    -0.4370    -0.0940 C.3   1 <1>   0.1380 
 10 H        4.2230    -0.9380    -1.0590 H     1 <1>   0.0000 
 11 H        4.1010    -1.1830     0.7050 H     1 <1>   0.0000 
 12 C        5.1850     0.6290     0.1300 C.3   1 <1>   0.0000 
 13 H        5.4950     0.6200     1.1830 H     1 <1>   0.0000 
 14 H        6.0810     0.4260    -0.4670 H     1 <1>   0.0000 
 15 C        4.5700     2.0040    -0.2120 C.3   1 <1>   0.1380 
 16 H        4.8800     2.7620     0.5130 H     1 <1>   0.0000 
 17 H        4.8590     2.3260    -1.2180 H     1 <1>   0.0000 
@<TRIPOS>BOND
  1   1   2  1   
  2   2   3  2   
  3   3   4  1   
  4   3   8  1   
  5   4   5  1   
  6   5   6  1   
  7   5   7  1   
  8   7   8  2   
  9   7  15  1   
 10   8   9  1   
 11   9  10  1   
 12   9  11  1   
 13   9  12  1   
 14  12  13  1   
 15  12  14  1   
 16  12  15  1   
 17  15  16  1   
 18  15  17  1   
@<TRIPOS>SUBSTRUCTURE
  1 ****   8 GROUP 4 **** **** 0

# MOE 2022.02 (io_trps.svl 2020.11)

@<TRIPOS>MOLECULE
LCSOL132
34 35 1 0 0 
SMALL
USER_CHARGES


@<TRIPOS>ATOM
  1 H        8.2490     6.7780    -1.2250 H     1 <1>   0.5000 
  2 O        7.3640     6.4630    -1.5090 O.3   1 <1>  -0.6500 
  3 C        6.7450     6.1220    -0.3610 C.2   1 <1>   0.6590 
  4 O        7.3140     6.2450     0.7100 O.2   1 <1>  -0.5700 
  5 C        5.3550     5.6060    -0.6050 C.3   1 <1>   0.0610 
  6 H        4.8000     6.3640    -1.1690 H     1 <1>   0.0000 
  7 H        5.4280     4.6970    -1.2140 H     1 <1>   0.0000 
  8 C        4.6450     5.3060     0.7120 C.3   1 <1>   0.1440 
  9 H        4.5950     6.2100     1.3330 H     1 <1>   0.0000 
 10 H        5.2220     4.5800     1.3000 H     1 <1>   0.0000 
 11 C        3.2490     4.7760     0.4890 C.ar  1 <1>  -0.1440 
 12 C        3.0220     3.3840     0.4230 C.ar  1 <1>  -0.1500 
 13 H        3.8510     2.6890     0.5430 H     1 <1>   0.1500 
 14 C        1.7380     2.8710     0.2080 C.ar  1 <1>  -0.1500 
 15 H        1.5610     1.8020     0.1600 H     1 <1>   0.1500 
 16 C        0.6920     3.7590     0.0560 C.ar  1 <1>   0.1790 
 17 C        0.9090     5.1380     0.1140 C.ar  1 <1>  -0.1440 
 18 C        2.1740     5.6640     0.3270 C.ar  1 <1>  -0.1500 
 19 H        2.3270     6.7380     0.3700 H     1 <1>   0.1500 
 20 C       -0.4160     5.8220    -0.0890 C.3   1 <1>   0.2040 
 21 C       -0.4290     6.6670    -1.3600 C.3   1 <1>   0.0000 
 22 H        0.3070     7.4770    -1.3100 H     1 <1>   0.0000 
 23 H       -0.1990     6.0640    -2.2470 H     1 <1>   0.0000 
 24 H       -1.4130     7.1210    -1.5240 H     1 <1>   0.0000 
 25 C       -0.8320     6.6270     1.1390 C.3   1 <1>   0.0000 
 26 H       -0.1220     7.4360     1.3460 H     1 <1>   0.0000 
 27 H       -0.8870     5.9970     2.0350 H     1 <1>   0.0000 
 28 H       -1.8200     7.0800     1.0000 H     1 <1>   0.0000 
 29 C       -1.2920     4.5610    -0.2510 C.2   1 <1>   0.3280 
 30 C       -2.7650     4.6410    -0.4920 C.3   1 <1>   0.0610 
 31 H       -2.9580     5.1780    -1.4240 H     1 <1>   0.0000 
 32 H       -3.2470     5.1690     0.3340 H     1 <1>   0.0000 
 33 H       -3.1910     3.6370    -0.5670 H     1 <1>   0.0000 
 34 N       -0.6540     3.4260    -0.1670 N.2   1 <1>  -0.6290 
@<TRIPOS>BOND
  1   1   2  1   
  2   2   3  1   
  3   3   4  2   
  4   3   5  1   
  5   5   6  1   
  6   5   7  1   
  7   5   8  1   
  8   8   9  1   
  9   8  10  1   
 10   8  11  1   
 11  11  12  ar  
 12  11  18  ar  
 13  12  13  1   
 14  12  14  ar  
 15  14  15  1   
 16  14  16  ar  
 17  16  17  ar  
 18  16  34  1   
 19  17  18  ar  
 20  17  20  1   
 21  18  19  1   
 22  20  21  1   
 23  20  25  1   
 24  20  29  1   
 25  21  22  1   
 26  21  23  1   
 27  21  24  1   
 28  25  26  1   
 29  25  27  1   
 30  25  28  1   
 31  29  30  1   
 32  29  34  2   
 33  30  31  1   
 34  30  32  1   
 35  30  33  1   
@<TRIPOS>SUBSTRUCTURE
  1 ****  18 GROUP 4 **** **** 0

# MOE 2022.02 (io_trps.svl 2020.11)

@<TRIPOS>MOLECULE
LCSOL133
20 20 1 0 0 
SMALL
USER_CHARGES


@<TRIPOS>ATOM
  1 H       -0.6400    -2.1580    -1.1720 H     1 <1>   0.4000 
  2 O        0.0570    -1.4980    -1.0130 O.3   1 <1>  -0.6800 
  3 C        1.0430    -2.1200    -0.1890 C.3   1 <1>   0.2800 
  4 H        0.5370    -2.5110     0.7010 H     1 <1>   0.0000 
  5 H        1.4530    -2.9580    -0.7590 H     1 <1>   0.0000 
  6 C        2.1300    -1.1200     0.1960 C.3   1 <1>   0.2170 
  7 S        3.4000    -1.8790     1.3460 S.3   1 <1>  -0.4470 
  8 C        4.0720    -3.1390     0.2400 C.3   1 <1>   0.2300 
  9 H        3.3460    -3.9410     0.0840 H     1 <1>   0.0000 
 10 H        4.9630    -3.5750     0.7010 H     1 <1>   0.0000 
 11 H        4.3600    -2.7160    -0.7250 H     1 <1>   0.0000 
 12 C        2.8050    -0.2720    -0.9230 C.3   1 <1>   0.0000 
 13 H        3.8210    -0.5380    -1.2280 H     1 <1>   0.0000 
 14 H        2.2020    -0.1730    -1.8340 H     1 <1>   0.0000 
 15 C        2.7110     0.9620    -0.0050 C.3   1 <1>   0.0000 
 16 H        2.3880     1.8860    -0.4920 H     1 <1>   0.0000 
 17 H        3.6280     1.1650     0.5590 H     1 <1>   0.0000 
 18 C        1.6290     0.2270     0.8090 C.3   1 <1>   0.0000 
 19 H        1.7000     0.3470     1.8940 H     1 <1>   0.0000 
 20 H        0.6120     0.5120     0.5130 H     1 <1>   0.0000 
@<TRIPOS>BOND
  1   1   2  1   
  2   2   3  1   
  3   3   4  1   
  4   3   5  1   
  5   3   6  1   
  6   6   7  1   
  7   6  12  1   
  8   6  18  1   
  9   7   8  1   
 10   8   9  1   
 11   8  10  1   
 12   8  11  1   
 13  12  13  1   
 14  12  14  1   
 15  12  15  1   
 16  15  16  1   
 17  15  17  1   
 18  15  18  1   
 19  18  19  1   
 20  18  20  1   
@<TRIPOS>SUBSTRUCTURE
  1 ****   6 GROUP 4 **** **** 0

# MOE 2022.02 (io_trps.svl 2020.11)

@<TRIPOS>MOLECULE
LCSOL134
24 24 1 0 0 
SMALL
USER_CHARGES


@<TRIPOS>ATOM
  1 H        1.5790    -0.2970     1.2220 H     1 <1>   0.1500 
  2 C        0.8560     0.4220     0.8600 C.2   1 <1>  -0.0100 
  3 O       -0.4340     0.0190     0.9300 O.3   1 <1>  -0.2800 
  4 C       -1.1910     1.0240     0.4330 C.2   1 <1>   0.2240 
  5 N       -2.5080     0.7990     0.4200 N.pl3 1 <1>  -0.8840 
  6 H       -3.1900     1.4660     0.0750 H     1 <1>   0.4000 
  7 H       -2.8790    -0.0780     0.7700 H     1 <1>   0.4000 
  8 C       -0.3890     2.0760     0.0420 C.2   1 <1>   0.0190 
  9 C       -0.9090     3.2730    -0.5310 C.1   1 <1>   0.5380 
 10 N       -1.3410     4.2450    -0.9970 N.1   1 <1>  -0.5570 
 11 C        0.9700     1.6980     0.3240 C.2   1 <1>  -0.1810 
 12 C        2.2890     2.4350     0.1030 C.3   1 <1>   0.1810 
 13 C        2.1160     3.9140    -0.2890 C.3   1 <1>   0.0000 
 14 H        3.0870     4.4160    -0.3750 H     1 <1>   0.0000 
 15 H        1.6220     4.0190    -1.2600 H     1 <1>   0.0000 
 16 H        1.5330     4.4630     0.4590 H     1 <1>   0.0000 
 17 C        3.1360     2.4050     1.3970 C.3   1 <1>   0.0000 
 18 H        3.3940     1.3820     1.6930 H     1 <1>   0.0000 
 19 H        4.0780     2.9520     1.2690 H     1 <1>   0.0000 
 20 H        2.5940     2.8640     2.2330 H     1 <1>   0.0000 
 21 C        3.0840     1.7380    -1.0220 C.3   1 <1>   0.0000 
 22 H        2.5200     1.7360    -1.9610 H     1 <1>   0.0000 
 23 H        3.3070     0.6940    -0.7720 H     1 <1>   0.0000 
 24 H        4.0390     2.2440    -1.2060 H     1 <1>   0.0000 
@<TRIPOS>BOND
  1   1   2  1   
  2   2   3  1   
  3   2  11  2   
  4   3   4  1   
  5   4   5  1   
  6   4   8  2   
  7   5   6  1   
  8   5   7  1   
  9   8   9  1   
 10   8  11  1   
 11   9  10  3   
 12  11  12  1   
 13  12  13  1   
 14  12  17  1   
 15  12  21  1   
 16  13  14  1   
 17  13  15  1   
 18  13  16  1   
 19  17  18  1   
 20  17  19  1   
 21  17  20  1   
 22  21  22  1   
 23  21  23  1   
 24  21  24  1   
@<TRIPOS>SUBSTRUCTURE
  1 ****  11 GROUP 4 **** **** 0

# MOE 2022.02 (io_trps.svl 2020.11)

@<TRIPOS>MOLECULE
LCSOL135
17 17 1 0 0 
SMALL
USER_CHARGES


@<TRIPOS>ATOM
  1 H        1.6850     2.2830    -0.0760 H     1 <1>   0.3600 
  2 N        2.5060     1.6780    -0.1510 N.3   1 <1>  -0.9900 
  3 H        2.6030     1.4900    -1.1500 H     1 <1>   0.3600 
  4 C        2.2050     0.3960     0.5390 C.3   1 <1>   0.3650 
  5 H        2.0430     0.6520     1.5940 H     1 <1>   0.0000 
  6 C        0.9140    -0.3270     0.0530 C.3   1 <1>   1.0200 
  7 F        0.6570    -1.4380     0.7780 F     1 <1>  -0.3400 
  8 F        1.0050    -0.6850    -1.2490 F     1 <1>  -0.3400 
  9 F       -0.1590     0.4930     0.1710 F     1 <1>  -0.3400 
 10 C        3.3970    -0.5400     0.5010 C.3   1 <1>  -0.1950 
 11 H        3.2040    -1.4230     1.1080 H     1 <1>   0.1000 
 12 C        4.2610    -0.7370    -0.7230 C.3   1 <1>  -0.2000 
 13 H        4.0900    -0.1380    -1.6090 H     1 <1>   0.1000 
 14 H        4.6110    -1.7410    -0.9400 H     1 <1>   0.1000 
 15 C        4.8260    -0.0460     0.4900 C.3   1 <1>  -0.2000 
 16 H        5.0160     1.0200     0.4270 H     1 <1>   0.1000 
 17 H        5.5530    -0.5840     1.0880 H     1 <1>   0.1000 
@<TRIPOS>BOND
  1   1   2  1   
  2   2   3  1   
  3   2   4  1   
  4   4   5  1   
  5   4   6  1   
  6   4  10  1   
  7   6   7  1   
  8   6   8  1   
  9   6   9  1   
 10  10  11  1   
 11  10  12  1   
 12  10  15  1   
 13  12  13  1   
 14  12  14  1   
 15  12  15  1   
 16  15  16  1   
 17  15  17  1   
@<TRIPOS>SUBSTRUCTURE
  1 ****   4 GROUP 4 **** **** 0

# MOE 2022.02 (io_trps.svl 2020.11)

@<TRIPOS>MOLECULE
LCSOL136
18 18 1 0 0 
SMALL
USER_CHARGES


@<TRIPOS>ATOM
  1 H       -3.1500     2.3980    -0.2760 H     1 <1>   0.1500 
  2 C       -2.1440     2.7440    -0.0880 C.2   1 <1>   0.1390 
  3 N       -1.9690     3.8660     0.6100 N.2   1 <1>  -0.4100 
  4 O       -0.5970     4.0580     0.6560 O.3   1 <1>  -0.0190 
  5 C        0.0380     3.0260     0.0220 C.2   1 <1>   0.0550 
  6 C        1.4840     3.0740    -0.0340 C.2   1 <1>   0.7150 
  7 O        2.0830     4.1490    -0.0900 O.2   1 <1>  -0.5700 
  8 N        2.2000     1.8670    -0.0450 N.am  1 <1>  -0.6600 
  9 C        1.6570     0.5650     0.3070 C.3   1 <1>   0.3000 
 10 H        0.7670     0.6550     0.9320 H     1 <1>   0.0000 
 11 H        1.4180     0.0250    -0.6130 H     1 <1>   0.0000 
 12 H        2.4080     0.0020     0.8710 H     1 <1>   0.0000 
 13 C        3.6090     1.8950    -0.4040 C.3   1 <1>   0.3000 
 14 H        3.7920     1.1380    -1.1730 H     1 <1>   0.0000 
 15 H        4.2010     1.6610     0.4850 H     1 <1>   0.0000 
 16 H        3.9200     2.8680    -0.7930 H     1 <1>   0.0000 
 17 C       -0.9220     2.1770    -0.4870 C.2   1 <1>  -0.1500 
 18 H       -0.7650     1.2880    -1.0790 H     1 <1>   0.1500 
@<TRIPOS>BOND
  1   1   2  1   
  2   2   3  2   
  3   2  17  1   
  4   3   4  1   
  5   4   5  1   
  6   5   6  1   
  7   5  17  2   
  8   6   7  2   
  9   6   8  am  
 10   8   9  1   
 11   8  13  1   
 12   9  10  1   
 13   9  11  1   
 14   9  12  1   
 15  13  14  1   
 16  13  15  1   
 17  13  16  1   
 18  17  18  1   
@<TRIPOS>SUBSTRUCTURE
  1 ****   5 GROUP 4 **** **** 0

# MOE 2022.02 (io_trps.svl 2020.11)

@<TRIPOS>MOLECULE
LCSOL137
9 9 1 0 0 
SMALL
USER_CHARGES


@<TRIPOS>ATOM
  1 H        1.5660     3.5840     0.0060 H     1 <1>   0.1500 
  2 C        1.1100     2.6090     0.0040 C.2   1 <1>  -0.0730 
  3 O        1.9980     1.5590     0.0060 O.3   1 <1>  -0.1120 
  4 N        1.1330     0.4430     0.0030 N.am  1 <1>  -0.3940 
  5 H        1.4920    -0.4990     0.0040 H     1 <1>   0.3700 
  6 C       -0.1830     0.8330    -0.0010 C.2   1 <1>   0.6160 
  7 O       -1.1570     0.1030    -0.0050 O.2   1 <1>  -0.5700 
  8 C       -0.1810     2.3000    -0.0010 C.2   1 <1>   0.1240 
  9 BR      -1.6540     3.3710    -0.0060 Br    1 <1>  -0.1100 
@<TRIPOS>BOND
  1   1   2  1   
  2   2   3  1   
  3   2   8  2   
  4   3   4  1   
  5   4   5  1   
  6   4   6  am  
  7   6   7  2   
  8   6   8  1   
  9   8   9  1   
@<TRIPOS>SUBSTRUCTURE
  1 ****   8 GROUP 4 **** **** 0

# MOE 2022.02 (io_trps.svl 2020.11)

@<TRIPOS>MOLECULE
LCSOL138
18 19 1 0 0 
SMALL
USER_CHARGES


@<TRIPOS>ATOM
  1 H        5.7340     2.0790     0.6340 H     1 <1>   0.1500 
  2 C        4.6550     2.0010     0.5150 C.ar  1 <1>  -0.1500 
  3 C        4.0230     0.7660     0.7420 C.ar  1 <1>  -0.1500 
  4 H        4.6180    -0.0960     1.0350 H     1 <1>   0.1500 
  5 C        2.6430     0.6400     0.5930 C.ar  1 <1>  -0.1500 
  6 H        2.1400    -0.3060     0.7640 H     1 <1>   0.1500 
  7 C        1.9420     1.7700     0.2130 C.ar  1 <1>  -0.0090 
  8 C        2.5420     3.0090    -0.0030 C.ar  1 <1>  -0.1440 
  9 C        3.9160     3.1300     0.1390 C.ar  1 <1>  -0.1500 
 10 H        4.4200     4.0770    -0.0330 H     1 <1>   0.1500 
 11 C        1.5730     4.0830    -0.3970 C.3   1 <1>   0.4990 
 12 H        1.7300     4.9790     0.2110 H     1 <1>   0.0000 
 13 H        1.6900     4.3250    -1.4580 H     1 <1>   0.0000 
 14 N        0.1910     3.5780    -0.1640 N.am  1 <1>  -0.9140 
 15 H       -0.2350     3.9510     0.6860 H     1 <1>   0.4200 
 16 S        0.2180     1.8720    -0.0260 S.o2  1 <1>   1.4470 
 17 O       -0.4590     1.5470     1.2060 O.2   1 <1>  -0.6500 
 18 O       -0.1040     1.2970    -1.3090 O.2   1 <1>  -0.6500 
@<TRIPOS>BOND
  1   1   2  1   
  2   2   3  ar  
  3   2   9  ar  
  4   3   4  1   
  5   3   5  ar  
  6   5   6  1   
  7   5   7  ar  
  8   7   8  ar  
  9   7  16  1   
 10   8   9  ar  
 11   8  11  1   
 12   9  10  1   
 13  11  12  1   
 14  11  13  1   
 15  11  14  1   
 16  14  15  1   
 17  14  16  am  
 18  16  17  2   
 19  16  18  2   
@<TRIPOS>SUBSTRUCTURE
  1 ****   7 GROUP 4 **** **** 0

# MOE 2022.02 (io_trps.svl 2020.11)

@<TRIPOS>MOLECULE
LCSOL139
16 17 1 0 0 
SMALL
USER_CHARGES


@<TRIPOS>ATOM
  1 H       -5.8800     0.8950    -0.0140 H     1 <1>   0.1500 
  2 C       -4.9640     1.4790    -0.0090 C.ar  1 <1>   0.1600 
  3 N       -3.8210     0.7610    -0.0110 N.ar  1 <1>  -0.6200 
  4 C       -2.6580     1.4440    -0.0060 C.ar  1 <1>   0.3100 
  5 C       -1.4590     0.7490    -0.0070 C.ar  1 <1>  -0.1500 
  6 H       -1.4820    -0.3370    -0.0130 H     1 <1>   0.1500 
  7 C       -0.2490     1.4340    -0.0020 C.ar  1 <1>   0.1110 
  8 BR       1.3870     0.4970    -0.0050 Br    1 <1>  -0.1110 
  9 C       -0.2730     2.8160     0.0050 C.ar  1 <1>   0.1600 
 10 H        0.6400     3.4030     0.0100 H     1 <1>   0.1500 
 11 N       -1.4160     3.5390     0.0080 N.ar  1 <1>  -0.6200 
 12 C       -2.5790     2.8550     0.0020 C.ar  1 <1>   0.3100 
 13 C       -3.7830     3.5420     0.0040 C.ar  1 <1>  -0.1500 
 14 H       -3.7720     4.6290     0.0100 H     1 <1>   0.1500 
 15 C       -4.9970     2.8590    -0.0020 C.ar  1 <1>  -0.1500 
 16 H       -5.9390     3.3950     0.0000 H     1 <1>   0.1500 
@<TRIPOS>BOND
  1   1   2  1   
  2   2   3  ar  
  3   2  15  ar  
  4   3   4  ar  
  5   4   5  ar  
  6   4  12  ar  
  7   5   6  1   
  8   5   7  ar  
  9   7   8  1   
 10   7   9  ar  
 11   9  10  1   
 12   9  11  ar  
 13  11  12  ar  
 14  12  13  ar  
 15  13  14  1   
 16  13  15  ar  
 17  15  16  1   
@<TRIPOS>SUBSTRUCTURE
  1 ****   4 GROUP 4 **** **** 0

# MOE 2022.02 (io_trps.svl 2020.11)

@<TRIPOS>MOLECULE
LCSOL140
18 18 1 0 0 
SMALL
USER_CHARGES


@<TRIPOS>ATOM
  1 H       -0.8900    -2.2150     0.3710 H     1 <1>   0.4000 
  2 O       -0.1910    -1.5550     0.2310 O.3   1 <1>  -0.6800 
  3 C        1.0410    -2.2660     0.1800 C.3   1 <1>   0.3750 
  4 H        0.9990    -2.9540    -0.6710 H     1 <1>   0.0000 
  5 H        1.1390    -2.8480     1.1020 H     1 <1>   0.0000 
  6 C        2.2280    -1.3290     0.0330 C.3   1 <1>  -0.1900 
  7 C        3.5280    -2.0940    -0.1500 C.3   1 <1>   0.3650 
  8 H        3.5290    -2.5610    -1.1410 H     1 <1>   0.0000 
  9 H        3.5740    -2.9010     0.5900 H     1 <1>   0.0000 
 10 N        4.7330    -1.2890    -0.0030 N.3   1 <1>  -0.9900 
 11 H        5.5500    -1.8720    -0.1780 H     1 <1>   0.3600 
 12 H        4.7430    -0.5660    -0.7180 H     1 <1>   0.3600 
 13 C        2.0330    -0.0100    -0.7000 C.3   1 <1>  -0.2000 
 14 H        2.8370     0.3930    -1.3030 H     1 <1>   0.1000 
 15 H        1.0490     0.2280    -1.0910 H     1 <1>   0.1000 
 16 C        2.2050    -0.0130     0.7950 C.3   1 <1>  -0.2000 
 17 H        3.1290     0.3770     1.2060 H     1 <1>   0.1000 
 18 H        1.3370     0.2200     1.4020 H     1 <1>   0.1000 
@<TRIPOS>BOND
  1   1   2  1   
  2   2   3  1   
  3   3   4  1   
  4   3   5  1   
  5   3   6  1   
  6   6   7  1   
  7   6  13  1   
  8   6  16  1   
  9   7   8  1   
 10   7   9  1   
 11   7  10  1   
 12  10  11  1   
 13  10  12  1   
 14  13  14  1   
 15  13  15  1   
 16  13  16  1   
 17  16  17  1   
 18  16  18  1   
@<TRIPOS>SUBSTRUCTURE
  1 ****   6 GROUP 4 **** **** 0

# MOE 2022.02 (io_trps.svl 2020.11)

@<TRIPOS>MOLECULE
LCSOL141
20 20 1 0 0 
SMALL
USER_CHARGES


@<TRIPOS>ATOM
  1 H        5.4860    -0.8210     0.8700 H     1 <1>   0.3600 
  2 N        4.8610    -1.5590     0.5410 N.3   1 <1>  -0.9900 
  3 H        5.3480    -2.0060    -0.2370 H     1 <1>   0.3600 
  4 C        3.5840    -0.9920     0.0960 C.3   1 <1>   0.2700 
  5 C        3.8760    -0.0010    -1.0430 C.3   1 <1>   0.0000 
  6 H        4.3750    -0.5000    -1.8820 H     1 <1>   0.0000 
  7 H        4.5290     0.8110    -0.7020 H     1 <1>   0.0000 
  8 H        2.9660     0.4590    -1.4390 H     1 <1>   0.0000 
  9 C        2.8840    -0.3090     1.2870 C.3   1 <1>   0.0000 
 10 H        2.8810    -0.9810     2.1570 H     1 <1>   0.0000 
 11 H        3.3830     0.6170     1.5960 H     1 <1>   0.0000 
 12 C        1.4420    -0.0420     0.8720 C.3   1 <1>   0.1050 
 13 H        0.7680     0.0140     1.7290 H     1 <1>   0.0000 
 14 H        1.3580     0.8710     0.2760 H     1 <1>   0.0000 
 15 S        0.9860    -1.4270    -0.1610 S.o2  1 <1>   1.0900 
 16 O        0.1840    -2.3470     0.6180 O.2   1 <1>  -0.6500 
 17 O        0.5430    -0.9160    -1.4420 O.2   1 <1>  -0.6500 
 18 C        2.6280    -2.1070    -0.3510 C.3   1 <1>   0.1050 
 19 H        2.6860    -2.9790     0.3090 H     1 <1>   0.0000 
 20 H        2.7770    -2.4230    -1.3870 H     1 <1>   0.0000 
@<TRIPOS>BOND
  1   1   2  1   
  2   2   3  1   
  3   2   4  1   
  4   4   5  1   
  5   4   9  1   
  6   4  18  1   
  7   5   6  1   
  8   5   7  1   
  9   5   8  1   
 10   9  10  1   
 11   9  11  1   
 12   9  12  1   
 13  12  13  1   
 14  12  14  1   
 15  12  15  1   
 16  15  16  2   
 17  15  17  2   
 18  15  18  1   
 19  18  19  1   
 20  18  20  1   
@<TRIPOS>SUBSTRUCTURE
  1 ****  18 GROUP 4 **** **** 0

# MOE 2022.02 (io_trps.svl 2020.11)

@<TRIPOS>MOLECULE
LCSOL142
18 18 1 0 0 
SMALL
USER_CHARGES


@<TRIPOS>ATOM
  1 H       -0.5910    -2.9330    -1.5520 H     1 <1>   0.4000 
  2 O       -0.0770    -2.7000    -0.7580 O.3   1 <1>  -0.6800 
  3 C        1.2450    -2.3920    -1.1870 C.3   1 <1>   0.2800 
  4 H        1.6890    -3.3020    -1.6050 H     1 <1>   0.0000 
  5 H        1.1800    -1.6450    -1.9860 H     1 <1>   0.0000 
  6 C        2.0630    -1.8850     0.0010 C.3   1 <1>   0.0000 
  7 C        2.1230    -2.8980     1.1340 C.3   1 <1>   0.2800 
  8 H        2.5100    -3.8630     0.7880 H     1 <1>   0.0000 
  9 H        1.1270    -3.0700     1.5550 H     1 <1>   0.0000 
 10 O        2.9520    -2.4410     2.2010 O.3   1 <1>  -0.6800 
 11 H        3.8500    -2.7820     2.0520 H     1 <1>   0.4000 
 12 C        3.3970    -1.2670    -0.4620 C.3   1 <1>   0.2580 
 13 H        4.2440    -1.3280     0.2290 H     1 <1>   0.0000 
 14 H        3.7370    -1.5450    -1.4650 H     1 <1>   0.0000 
 15 O        2.8140     0.0630    -0.4420 O.3   1 <1>  -0.5160 
 16 C        1.7220    -0.4320     0.3870 C.3   1 <1>   0.2580 
 17 H        0.7530    -0.0540     0.0470 H     1 <1>   0.0000 
 18 H        1.8710    -0.1490     1.4340 H     1 <1>   0.0000 
@<TRIPOS>BOND
  1   1   2  1   
  2   2   3  1   
  3   3   4  1   
  4   3   5  1   
  5   3   6  1   
  6   6   7  1   
  7   6  12  1   
  8   6  16  1   
  9   7   8  1   
 10   7   9  1   
 11   7  10  1   
 12  10  11  1   
 13  12  13  1   
 14  12  14  1   
 15  12  15  1   
 16  15  16  1   
 17  16  17  1   
 18  16  18  1   
@<TRIPOS>SUBSTRUCTURE
  1 ****   6 GROUP 4 **** **** 0

# MOE 2022.02 (io_trps.svl 2020.11)

@<TRIPOS>MOLECULE
LCSOL143
32 33 1 0 0 
SMALL
USER_CHARGES


@<TRIPOS>ATOM
  1 H       -0.0110    -1.2280    -0.1600 H     1 <1>   0.0000 
  2 C        0.2840    -0.1740    -0.1430 C.3   1 <1>   0.0000 
  3 H       -0.1970     0.2890     0.7260 H     1 <1>   0.0000 
  4 H       -0.1100     0.2940    -1.0510 H     1 <1>   0.0000 
  5 C        1.7970    -0.0620    -0.0690 C.3   1 <1>   0.2300 
  6 H        2.1540    -0.5600     0.8380 H     1 <1>   0.0000 
  7 H        2.2400    -0.5560    -0.9400 H     1 <1>   0.0000 
  8 S        2.2840     1.6860    -0.0410 S.3   1 <1>  -0.3710 
  9 C        4.0290     1.5600     0.1280 C.2   1 <1>   0.6510 
 10 N        4.5660     0.3860     0.0010 N.2   1 <1>  -0.6210 
 11 C        5.9210     0.3070     0.1250 C.2   1 <1>   0.0330 
 12 C        6.7240     1.3440     0.3510 C.2   1 <1>   0.1150 
 13 C        6.1390     2.6900     0.4840 C.2   1 <1>   0.6160 
 14 O        6.8420     3.6810     0.6700 O.2   1 <1>  -0.5700 
 15 N        4.7460     2.7280     0.3800 N.am  1 <1>  -0.4200 
 16 C        4.1320     4.0520     0.5410 C.3   1 <1>   0.3000 
 17 H        4.7340     4.6510     1.2340 H     1 <1>   0.0000 
 18 H        3.1440     3.9680     1.0010 H     1 <1>   0.0000 
 19 C        4.0300     4.7940    -0.7850 C.3   1 <1>   0.0000 
 20 H        3.4310     4.2360    -1.5120 H     1 <1>   0.0000 
 21 H        5.0200     4.9530    -1.2240 H     1 <1>   0.0000 
 22 H        3.5620     5.7720    -0.6370 H     1 <1>   0.0000 
 23 S        8.3990     0.9870     0.4570 S.3   1 <1>  -0.3310 
 24 C        8.0570    -0.8140     0.5610 C.3   1 <1>   0.2300 
 25 H        8.0600    -1.0860     1.6230 H     1 <1>   0.0000 
 26 C        9.1100    -1.6230    -0.1760 C.3   1 <1>   0.0000 
 27 H        8.8830    -2.6920    -0.1070 H     1 <1>   0.0000 
 28 H        9.1560    -1.3620    -1.2390 H     1 <1>   0.0000 
 29 H       10.1040    -1.4680     0.2580 H     1 <1>   0.0000 
 30 C        6.6420    -1.0040    -0.0140 C.3   1 <1>   0.1380 
 31 H        6.1230    -1.7990     0.5340 H     1 <1>   0.0000 
 32 H        6.6670    -1.2950    -1.0720 H     1 <1>   0.0000 
@<TRIPOS>BOND
  1   1   2  1   
  2   2   3  1   
  3   2   4  1   
  4   2   5  1   
  5   5   6  1   
  6   5   7  1   
  7   5   8  1   
  8   8   9  1   
  9   9  10  2   
 10   9  15  1   
 11  10  11  1   
 12  11  12  2   
 13  11  30  1   
 14  12  13  1   
 15  12  23  1   
 16  13  14  2   
 17  13  15  am  
 18  15  16  1   
 19  16  17  1   
 20  16  18  1   
 21  16  19  1   
 22  19  20  1   
 23  19  21  1   
 24  19  22  1   
 25  23  24  1   
 26  24  25  1   
 27  24  26  1   
 28  24  30  1   
 29  26  27  1   
 30  26  28  1   
 31  26  29  1   
 32  30  31  1   
 33  30  32  1   
@<TRIPOS>SUBSTRUCTURE
  1 ****  10 GROUP 4 **** **** 0

# MOE 2022.02 (io_trps.svl 2020.11)

@<TRIPOS>MOLECULE
LCSOL144
18 18 1 0 0 
SMALL
USER_CHARGES


@<TRIPOS>ATOM
  1 H        0.0050    -0.5600     0.0790 H     1 <1>   0.2700 
  2 N       -0.2370     0.4230     0.0160 N.pl3 1 <1>   0.3000 
  3 N       -1.5130     0.7430    -0.2390 N.2   1 <1>  -0.7070 
  4 C       -1.5140     2.0800    -0.2620 C.2   1 <1>   0.1080 
  5 C       -2.7760     2.8170    -0.5200 C.3   1 <1>   0.1810 
  6 H       -2.5980     3.6690    -1.1840 H     1 <1>   0.0000 
  7 H       -3.1920     3.1940     0.4200 H     1 <1>   0.0000 
  8 H       -3.5260     2.1750    -0.9940 H     1 <1>   0.0000 
  9 C       -0.2210     2.6160    -0.0080 C.2   1 <1>  -0.1810 
 10 C        0.1670     4.0460     0.0500 C.3   1 <1>   0.1810 
 11 H        1.1330     4.1790     0.5470 H     1 <1>   0.0000 
 12 H        0.2420     4.4600    -0.9600 H     1 <1>   0.0000 
 13 H       -0.5760     4.6270     0.6070 H     1 <1>   0.0000 
 14 C        0.5840     1.5050     0.1600 C.2   1 <1>  -0.3320 
 15 C        2.0310     1.3660     0.4450 C.3   1 <1>   0.1800 
 16 H        2.3730     0.3370     0.3000 H     1 <1>   0.0000 
 17 H        2.2430     1.6540     1.4800 H     1 <1>   0.0000 
 18 H        2.6160     2.0110    -0.2190 H     1 <1>   0.0000 
@<TRIPOS>BOND
  1   1   2  1   
  2   2   3  1   
  3   2  14  1   
  4   3   4  2   
  5   4   5  1   
  6   4   9  1   
  7   5   6  1   
  8   5   7  1   
  9   5   8  1   
 10   9  10  1   
 11   9  14  2   
 12  10  11  1   
 13  10  12  1   
 14  10  13  1   
 15  14  15  1   
 16  15  16  1   
 17  15  17  1   
 18  15  18  1   
@<TRIPOS>SUBSTRUCTURE
  1 ****   9 GROUP 4 **** **** 0

# MOE 2022.02 (io_trps.svl 2020.11)

@<TRIPOS>MOLECULE
LCSOL145
10 10 1 0 0 
SMALL
USER_CHARGES


@<TRIPOS>ATOM
  1 H       -2.6780     3.5210    -0.0040 H     1 <1>   0.1500 
  2 C       -1.7990     2.8920    -0.0070 C.2   1 <1>  -0.1500 
  3 C       -1.7730     1.5180    -0.0290 C.2   1 <1>   0.1980 
  4 BR      -3.3040     0.4140    -0.0590 Br    1 <1>  -0.0580 
  5 O       -0.5010     1.0480    -0.0280 O.3   1 <1>  -0.2800 
  6 C        0.3070     2.1440    -0.0040 C.2   1 <1>   0.1600 
  7 C        1.7090     1.9270     0.0020 C.1   1 <1>   0.5370 
  8 N        2.8600     1.7740     0.0080 N.1   1 <1>  -0.5570 
  9 C       -0.4400     3.3020     0.0090 C.2   1 <1>  -0.1500 
 10 H       -0.0560     4.3130     0.0280 H     1 <1>   0.1500 
@<TRIPOS>BOND
  1   1   2  1   
  2   2   3  2   
  3   2   9  1   
  4   3   4  1   
  5   3   5  1   
  6   5   6  1   
  7   6   7  1   
  8   6   9  2   
  9   7   8  3   
 10   9  10  1   
@<TRIPOS>SUBSTRUCTURE
  1 ****   6 GROUP 4 **** **** 0

# MOE 2022.02 (io_trps.svl 2020.11)

@<TRIPOS>MOLECULE
LCSOL146
21 20 1 0 0 
SMALL
USER_CHARGES


@<TRIPOS>ATOM
  1 H        1.2560    -1.9330    -0.8620 H     1 <1>   0.4000 
  2 O        1.6520    -1.1120    -1.2100 O.3   1 <1>  -0.6800 
  3 C        1.5190    -0.1550    -0.1410 C.3   1 <1>   0.2800 
  4 C        2.0660     1.1820    -0.6460 C.3   1 <1>   0.0000 
  5 H        1.5060     1.5240    -1.5230 H     1 <1>   0.0000 
  6 H        3.1080     1.0920    -0.9700 H     1 <1>   0.0000 
  7 H        2.0060     1.9560     0.1270 H     1 <1>   0.0000 
  8 C        2.2870    -0.6490     1.1140 C.3   1 <1>   0.2800 
  9 H        1.9940    -0.0380     1.9760 H     1 <1>   0.0000 
 10 H        2.0360    -1.6890     1.3520 H     1 <1>   0.0000 
 11 O        3.7130    -0.5290     1.0280 O.3   1 <1>  -0.5600 
 12 C        4.3140    -1.4780     0.1560 C.3   1 <1>   0.2800 
 13 H        3.9580    -2.4910     0.3670 H     1 <1>   0.0000 
 14 H        4.1310    -1.2170    -0.8890 H     1 <1>   0.0000 
 15 H        5.3950    -1.4510     0.3210 H     1 <1>   0.0000 
 16 C        0.0060    -0.0200     0.1710 C.3   1 <1>   0.2700 
 17 H       -0.1430     0.6270     1.0440 H     1 <1>   0.0000 
 18 H       -0.5160     0.4450    -0.6740 H     1 <1>   0.0000 
 19 N       -0.6300    -1.3250     0.4170 N.3   1 <1>  -0.9900 
 20 H       -1.5520    -1.1610     0.8270 H     1 <1>   0.3600 
 21 H       -0.8310    -1.7560    -0.4880 H     1 <1>   0.3600 
@<TRIPOS>BOND
  1   1   2  1   
  2   2   3  1   
  3   3   4  1   
  4   3   8  1   
  5   3  16  1   
  6   4   5  1   
  7   4   6  1   
  8   4   7  1   
  9   8   9  1   
 10   8  10  1   
 11   8  11  1   
 12  11  12  1   
 13  12  13  1   
 14  12  14  1   
 15  12  15  1   
 16  16  17  1   
 17  16  18  1   
 18  16  19  1   
 19  19  20  1   
 20  19  21  1   
@<TRIPOS>SUBSTRUCTURE
  1 ****   3 GROUP 4 **** **** 0

# MOE 2022.02 (io_trps.svl 2020.11)

@<TRIPOS>MOLECULE
LCSOL147
37 39 1 0 0 
SMALL
USER_CHARGES


@<TRIPOS>ATOM
  1 H       -4.7780    -4.6950    -0.2640 H     1 <1>   0.1500 
  2 C       -3.7070    -4.8750    -0.2310 C.ar  1 <1>  -0.1500 
  3 C       -3.2170    -6.0890     0.2460 C.ar  1 <1>  -0.1500 
  4 H       -3.9070    -6.8570     0.5860 H     1 <1>   0.1500 
  5 C       -1.8400    -6.3250     0.2770 C.ar  1 <1>  -0.1500 
  6 H       -1.4780    -7.2840     0.6410 H     1 <1>   0.1500 
  7 C       -0.9350    -5.3450    -0.1620 C.ar  1 <1>  -0.1440 
  8 C       -1.4450    -4.1170    -0.6000 C.ar  1 <1>   0.0820 
  9 C       -2.8200    -3.8890    -0.6600 C.ar  1 <1>  -0.1500 
 10 H       -3.1980    -2.9390    -1.0280 H     1 <1>   0.1500 
 11 O       -0.6300    -3.1030    -1.0280 O.3   1 <1>  -0.3630 
 12 C        0.2020    -2.6320     0.0440 C.3   1 <1>   0.2800 
 13 H       -0.3210    -2.6520     1.0100 H     1 <1>   0.0000 
 14 H        0.4110    -1.5790    -0.1790 H     1 <1>   0.0000 
 15 C        1.5290    -3.3900     0.0920 C.3   1 <1>   0.3560 
 16 H        1.9550    -3.4630    -0.9140 H     1 <1>   0.0000 
 17 H        2.2160    -2.8120     0.7190 H     1 <1>   0.0000 
 18 N        1.3410    -4.7450     0.6600 N.am  1 <1>  -0.8490 
 19 S        2.6310    -5.4630     1.4600 S.o2  1 <1>   1.5760 
 20 O        3.3720    -4.4550     2.1820 O.2   1 <1>  -0.6500 
 21 O        2.1310    -6.6430     2.1290 O.2   1 <1>  -0.6500 
 22 N        3.5740    -5.9850     0.1630 N.am  1 <1>  -0.8490 
 23 C        4.4950    -7.1100     0.4750 C.3   1 <1>   0.3560 
 24 H        4.9350    -6.9870     1.4720 H     1 <1>   0.0000 
 25 H        3.9700    -8.0690     0.4210 H     1 <1>   0.0000 
 26 C        5.5750    -7.0090    -0.5890 C.3   1 <1>   0.0000 
 27 H        6.4930    -7.5300    -0.3060 H     1 <1>   0.0000 
 28 H        5.2180    -7.4240    -1.5390 H     1 <1>   0.0000 
 29 C        5.7590    -5.5110    -0.7080 C.3   1 <1>   0.0000 
 30 H        6.3530    -5.1370     0.1350 H     1 <1>   0.0000 
 31 H        6.2590    -5.2150    -1.6340 H     1 <1>   0.0000 
 32 C        4.3350    -4.9760    -0.6190 C.3   1 <1>   0.3560 
 33 H        3.8850    -4.9090    -1.6150 H     1 <1>   0.0000 
 34 H        4.3310    -3.9790    -0.1700 H     1 <1>   0.0000 
 35 C        0.5440    -5.6430    -0.2030 C.3   1 <1>   0.4990 
 36 H        0.6950    -6.6900     0.0830 H     1 <1>   0.0000 
 37 H        0.8910    -5.5730    -1.2420 H     1 <1>   0.0000 
@<TRIPOS>BOND
  1   1   2  1   
  2   2   3  ar  
  3   2   9  ar  
  4   3   4  1   
  5   3   5  ar  
  6   5   6  1   
  7   5   7  ar  
  8   7   8  ar  
  9   7  35  1   
 10   8   9  ar  
 11   8  11  1   
 12   9  10  1   
 13  11  12  1   
 14  12  13  1   
 15  12  14  1   
 16  12  15  1   
 17  15  16  1   
 18  15  17  1   
 19  15  18  1   
 20  18  19  am  
 21  18  35  1   
 22  19  20  2   
 23  19  21  2   
 24  19  22  am  
 25  22  23  1   
 26  22  32  1   
 27  23  24  1   
 28  23  25  1   
 29  23  26  1   
 30  26  27  1   
 31  26  28  1   
 32  26  29  1   
 33  29  30  1   
 34  29  31  1   
 35  29  32  1   
 36  32  33  1   
 37  32  34  1   
 38  35  36  1   
 39  35  37  1   
@<TRIPOS>SUBSTRUCTURE
  1 ****  18 GROUP 4 **** **** 0

# MOE 2022.02 (io_trps.svl 2020.11)

@<TRIPOS>MOLECULE
LCSOL148
18 18 1 0 0 
SMALL
USER_CHARGES


@<TRIPOS>ATOM
  1 H        5.5800    -0.5390     0.3040 H     1 <1>   0.5000 
  2 O        4.6360    -0.2850     0.2630 O.3   1 <1>  -0.6500 
  3 C        4.0050    -1.4760     0.1710 C.2   1 <1>   0.8060 
  4 O        4.6650    -2.5060     0.1600 O.2   1 <1>  -0.5700 
  5 C        2.5610    -1.3940     0.0940 C.2   1 <1>  -0.0860 
  6 C        1.7230    -2.4940    -0.0060 C.2   1 <1>  -0.0400 
  7 C        1.9620    -3.9530    -0.0630 C.3   1 <1>   0.1800 
  8 H        1.0210    -4.5080    -0.1420 H     1 <1>   0.0000 
  9 H        2.4780    -4.2920     0.8410 H     1 <1>   0.0000 
 10 H        2.5770    -4.2070    -0.9310 H     1 <1>   0.0000 
 11 O        0.4220    -2.1010    -0.0600 O.3   1 <1>  -0.2800 
 12 C        0.4100    -0.7500     0.0050 C.2   1 <1>  -0.0100 
 13 H       -0.5690    -0.2920    -0.0280 H     1 <1>   0.1500 
 14 C        1.6920    -0.2490     0.1010 C.2   1 <1>  -0.1810 
 15 C        2.0670     1.1840     0.1930 C.3   1 <1>   0.1810 
 16 H        2.6000     1.3840     1.1280 H     1 <1>   0.0000 
 17 H        2.7080     1.4700    -0.6470 H     1 <1>   0.0000 
 18 H        1.1810     1.8280     0.1700 H     1 <1>   0.0000 
@<TRIPOS>BOND
  1   1   2  1   
  2   2   3  1   
  3   3   4  2   
  4   3   5  1   
  5   5   6  2   
  6   5  14  1   
  7   6   7  1   
  8   6  11  1   
  9   7   8  1   
 10   7   9  1   
 11   7  10  1   
 12  11  12  1   
 13  12  13  1   
 14  12  14  2   
 15  14  15  1   
 16  15  16  1   
 17  15  17  1   
 18  15  18  1   
@<TRIPOS>SUBSTRUCTURE
  1 ****   5 GROUP 4 **** **** 0

# MOE 2022.02 (io_trps.svl 2020.11)

@<TRIPOS>MOLECULE
LCSOL149
13 13 1 0 0 
SMALL
USER_CHARGES


@<TRIPOS>ATOM
  1 H       -0.1170    -0.8910    -0.0060 H     1 <1>   0.4000 
  2 N        0.2850     0.0510    -0.0020 N.2   1 <1>  -0.8500 
  3 C        1.5810     0.0060    -0.0030 C.2   1 <1>   0.4860 
  4 C        2.2950    -1.2910    -0.0090 C.2   1 <1>  -0.1360 
  5 H        1.7340    -2.2140    -0.0130 H     1 <1>   0.1500 
  6 C        3.6310    -1.2580    -0.0090 C.2   1 <1>  -0.1360 
  7 H        4.2270    -2.1620    -0.0130 H     1 <1>   0.1500 
  8 C        4.3870     0.0160    -0.0040 C.2   1 <1>   0.6160 
  9 O        5.6130     0.0090    -0.0050 O.2   1 <1>  -0.5700 
 10 N        3.6570     1.1760     0.0010 N.am  1 <1>  -0.4100 
 11 H        4.1460     2.0640     0.0050 H     1 <1>   0.3700 
 12 N        2.2740     1.1810     0.0020 N.pl3 1 <1>  -0.4700 
 13 H        1.7530     2.0520     0.0060 H     1 <1>   0.4000 
@<TRIPOS>BOND
  1   1   2  1   
  2   2   3  2   
  3   3   4  1   
  4   3  12  1   
  5   4   5  1   
  6   4   6  2   
  7   6   7  1   
  8   6   8  1   
  9   8   9  2   
 10   8  10  am  
 11  10  11  1   
 12  10  12  1   
 13  12  13  1   
@<TRIPOS>SUBSTRUCTURE
  1 ****  10 GROUP 4 **** **** 0

# MOE 2022.02 (io_trps.svl 2020.11)

@<TRIPOS>MOLECULE
LCSOL150
12 12 1 0 0 
SMALL
USER_CHARGES


@<TRIPOS>ATOM
  1 H       -3.4890     3.3220    -0.0010 H     1 <1>   0.1500 
  2 C       -2.6080     2.6860     0.0000 C.2   1 <1>  -0.0500 
  3 C       -2.6920     1.3480     0.0000 C.2   1 <1>   0.1540 
  4 CL      -4.1970     0.5240     0.0000 Cl    1 <1>  -0.1400 
  5 C       -1.4180     0.5520     0.0010 C.2   1 <1>   0.5410 
  6 O       -1.4190    -0.6760     0.0010 O.2   1 <1>  -0.5700 
  7 C       -0.1410     1.3450     0.0010 C.2   1 <1>   0.1540 
  8 CL       1.3610     0.5180     0.0020 Cl    1 <1>  -0.1400 
  9 C       -0.2220     2.6840     0.0010 C.2   1 <1>  -0.0500 
 10 H        0.6600     3.3180     0.0010 H     1 <1>   0.1500 
 11 N       -1.4140     3.3620     0.0000 N.pl3 1 <1>  -0.6000 
 12 H       -1.4130     4.3790     0.0000 H     1 <1>   0.4000 
@<TRIPOS>BOND
  1   1   2  1   
  2   2   3  2   
  3   2  11  1   
  4   3   4  1   
  5   3   5  1   
  6   5   6  2   
  7   5   7  1   
  8   7   8  1   
  9   7   9  2   
 10   9  10  1   
 11   9  11  1   
 12  11  12  1   
@<TRIPOS>SUBSTRUCTURE
  1 ****   5 GROUP 4 **** **** 0

# MOE 2022.02 (io_trps.svl 2020.11)

@<TRIPOS>MOLECULE
LCSOL151
26 27 1 0 0 
SMALL
USER_CHARGES


@<TRIPOS>ATOM
  1 H        0.3080    -3.5820     1.4180 H     1 <1>   0.1500 
  2 C        0.8560    -2.8600     0.8260 C.2   1 <1>  -0.0730 
  3 C        0.3000    -1.8260     0.1730 C.2   1 <1>   0.0910 
  4 C       -1.1890    -1.6390     0.2110 C.2   1 <1>   0.6160 
  5 O       -1.6580    -0.5430     0.4930 O.2   1 <1>  -0.5700 
  6 N       -1.8930    -2.7790    -0.1350 N.am  1 <1>  -0.5470 
  7 H       -1.3440    -3.5820    -0.4180 H     1 <1>   0.3700 
  8 C       -3.2950    -2.9460    -0.1540 C.ar  1 <1>   0.1170 
  9 C       -4.2050    -1.9520     0.2170 C.ar  1 <1>  -0.1500 
 10 H       -3.8740    -0.9730     0.5480 H     1 <1>   0.1500 
 11 C       -5.5790    -2.2040     0.1690 C.ar  1 <1>   0.1770 
 12 CL      -6.6900    -0.9700     0.6290 Cl    1 <1>  -0.1770 
 13 C       -6.0650    -3.4390    -0.2450 C.ar  1 <1>  -0.1500 
 14 H       -7.1340    -3.6270    -0.2800 H     1 <1>   0.1500 
 15 C       -5.1610    -4.4290    -0.6120 C.ar  1 <1>   0.1770 
 16 CL      -5.7420    -5.9660    -1.1260 Cl    1 <1>  -0.1770 
 17 C       -3.7860    -4.1910    -0.5690 C.ar  1 <1>  -0.1500 
 18 H       -3.1040    -4.9840    -0.8640 H     1 <1>   0.1500 
 19 O        1.0490    -0.8540    -0.4740 O.3   1 <1>  -0.3570 
 20 C        2.4210    -0.8890    -0.0580 C.3   1 <1>   0.2800 
 21 H        2.9980    -0.2730    -0.7540 H     1 <1>   0.0000 
 22 H        2.4920    -0.4360     0.9390 H     1 <1>   0.0000 
 23 C        2.9460    -2.3190    -0.0520 C.3   1 <1>   0.2800 
 24 H        2.8680    -2.7690    -1.0490 H     1 <1>   0.0000 
 25 H        3.9970    -2.3420     0.2540 H     1 <1>   0.0000 
 26 O        2.2020    -3.1390     0.8640 O.3   1 <1>  -0.3570 
@<TRIPOS>BOND
  1   1   2  1   
  2   2   3  2   
  3   2  26  1   
  4   3   4  1   
  5   3  19  1   
  6   4   5  2   
  7   4   6  am  
  8   6   7  1   
  9   6   8  1   
 10   8   9  ar  
 11   8  17  ar  
 12   9  10  1   
 13   9  11  ar  
 14  11  12  1   
 15  11  13  ar  
 16  13  14  1   
 17  13  15  ar  
 18  15  16  1   
 19  15  17  ar  
 20  17  18  1   
 21  19  20  1   
 22  20  21  1   
 23  20  22  1   
 24  20  23  1   
 25  23  24  1   
 26  23  25  1   
 27  23  26  1   
@<TRIPOS>SUBSTRUCTURE
  1 ****   6 GROUP 4 **** **** 0

# MOE 2022.02 (io_trps.svl 2020.11)

@<TRIPOS>MOLECULE
LCSOL152
20 19 1 0 0 
SMALL
USER_CHARGES


@<TRIPOS>ATOM
  1 H        8.1680    -1.6620     0.1670 H     1 <1>   0.3600 
  2 N        7.3130    -2.2110     0.1310 N.3   1 <1>  -0.9900 
  3 H        7.1700    -2.4610    -0.8460 H     1 <1>   0.3600 
  4 C        6.1990    -1.3820     0.5680 C.3   1 <1>   0.4700 
  5 H        6.3400    -1.1110     1.6190 H     1 <1>   0.0000 
  6 H        6.1820    -0.4550    -0.0140 H     1 <1>   0.0000 
  7 C        4.9390    -2.1070     0.3980 C.1   1 <1>  -0.2000 
  8 C        3.8990    -2.6950     0.2660 C.1   1 <1>  -0.2000 
  9 C        2.6330    -3.4290     0.1130 C.3   1 <1>   0.4700 
 10 H        2.6330    -4.2340     0.8610 H     1 <1>   0.0000 
 11 H        2.5900    -3.9120    -0.8710 H     1 <1>   0.0000 
 12 N        1.4650    -2.5600     0.3290 N.3   1 <1>  -0.8100 
 13 C        0.2540    -3.3730     0.4560 C.3   1 <1>   0.2700 
 14 H       -0.6170    -2.7380     0.6560 H     1 <1>   0.0000 
 15 H        0.0520    -3.9600    -0.4480 H     1 <1>   0.0000 
 16 H        0.3370    -4.0610     1.3040 H     1 <1>   0.0000 
 17 C        1.3040    -1.5980    -0.7640 C.3   1 <1>   0.2700 
 18 H        2.1650    -0.9230    -0.8310 H     1 <1>   0.0000 
 19 H        0.4310    -0.9600    -0.5860 H     1 <1>   0.0000 
 20 H        1.1740    -2.0910    -1.7340 H     1 <1>   0.0000 
@<TRIPOS>BOND
  1   1   2  1   
  2   2   3  1   
  3   2   4  1   
  4   4   5  1   
  5   4   6  1   
  6   4   7  1   
  7   7   8  3   
  8   8   9  1   
  9   9  10  1   
 10   9  11  1   
 11   9  12  1   
 12  12  13  1   
 13  12  17  1   
 14  13  14  1   
 15  13  15  1   
 16  13  16  1   
 17  17  18  1   
 18  17  19  1   
 19  17  20  1   
@<TRIPOS>SUBSTRUCTURE
  1 ****   8 GROUP 4 **** **** 0

# MOE 2022.02 (io_trps.svl 2020.11)

@<TRIPOS>MOLECULE
LCSOL153
19 21 1 0 0 
SMALL
USER_CHARGES


@<TRIPOS>ATOM
  1 H        0.8350     0.2860     0.0020 H     1 <1>   0.1500 
  2 C       -0.2520     0.3240     0.0010 C.ar  1 <1>  -0.1500 
  3 C       -0.9080     1.5540    -0.0020 C.ar  1 <1>  -0.1500 
  4 H       -0.3300     2.4770    -0.0040 H     1 <1>   0.1500 
  5 C       -2.3030     1.6080    -0.0030 C.ar  1 <1>  -0.1500 
  6 H       -2.7850     2.5820    -0.0060 H     1 <1>   0.1500 
  7 C       -3.0440     0.4230     0.0000 C.ar  1 <1>   0.1170 
  8 C       -2.3840    -0.8280     0.0030 C.ar  1 <1>   0.1790 
  9 N       -3.0820    -2.0590     0.0060 N.2   1 <1>  -0.6290 
 10 C       -4.3780    -2.0250     0.0050 C.2   1 <1>   0.3900 
 11 H       -4.9840    -2.9430     0.0070 H     1 <1>   0.0600 
 12 C       -5.1320    -0.7480     0.0010 C.2   1 <1>   0.5100 
 13 N       -6.4140    -0.6320     0.0010 N.2   1 <1>  -0.5130 
 14 O       -6.6200     0.7870    -0.0030 O.3   1 <1>  -0.0870 
 15 C       -5.3640     1.3750    -0.0040 C.2   1 <1>   0.7800 
 16 O       -5.1970     2.5860    -0.0070 O.2   1 <1>  -0.5700 
 17 N       -4.4410     0.3940    -0.0010 N.am  1 <1>  -0.2370 
 18 C       -0.9890    -0.8610     0.0040 C.ar  1 <1>  -0.1500 
 19 H       -0.4750    -1.8190     0.0070 H     1 <1>   0.1500 
@<TRIPOS>BOND
  1   1   2  1   
  2   2   3  ar  
  3   2  18  ar  
  4   3   4  1   
  5   3   5  ar  
  6   5   6  1   
  7   5   7  ar  
  8   7   8  ar  
  9   7  17  1   
 10   8   9  1   
 11   8  18  ar  
 12   9  10  2   
 13  10  11  1   
 14  10  12  1   
 15  12  13  2   
 16  12  17  1   
 17  13  14  1   
 18  14  15  1   
 19  15  16  2   
 20  15  17  am  
 21  18  19  1   
@<TRIPOS>SUBSTRUCTURE
  1 ****   7 GROUP 4 **** **** 0

# MOE 2022.02 (io_trps.svl 2020.11)

@<TRIPOS>MOLECULE
LCSOL154
26 28 1 0 0 
SMALL
USER_CHARGES


@<TRIPOS>ATOM
  1 H       11.1820    -0.0150    -0.4650 H     1 <1>   0.4000 
  2 N       10.2620     0.4400    -0.4460 N.2   1 <1>  -0.8500 
  3 C        9.3960    -0.4730    -0.2100 C.2   1 <1>   0.6410 
  4 S        9.8670    -2.1650     0.0180 S.3   1 <1>  -0.2420 
  5 C        8.1840    -2.6130     0.2720 C.2   1 <1>  -0.0490 
  6 H        7.8880    -3.6290     0.4900 H     1 <1>   0.1500 
  7 C        7.3710    -1.5430     0.1790 C.2   1 <1>   0.0720 
  8 C        5.9160    -1.5610     0.3600 C.ar  1 <1>   0.0280 
  9 C        5.2820    -0.5650     1.1210 C.ar  1 <1>  -0.1500 
 10 H        5.8630     0.2180     1.6020 H     1 <1>   0.1500 
 11 C        3.8940    -0.5720     1.2930 C.ar  1 <1>  -0.1500 
 12 H        3.4140     0.2040     1.8840 H     1 <1>   0.1500 
 13 C        3.1260    -1.5710     0.7030 C.ar  1 <1>   0.0820 
 14 C        3.7460    -2.5810    -0.0370 C.ar  1 <1>   0.0820 
 15 C        5.1300    -2.5670    -0.2220 C.ar  1 <1>  -0.1500 
 16 H        5.5840    -3.3500    -0.8240 H     1 <1>   0.1500 
 17 O        3.0580    -3.6160    -0.6180 O.3   1 <1>  -0.3630 
 18 C        1.7340    -3.7280    -0.0830 C.3   1 <1>   0.2800 
 19 H        1.1650    -4.3920    -0.7410 H     1 <1>   0.0000 
 20 H        1.7960    -4.1980     0.9070 H     1 <1>   0.0000 
 21 C        1.0680    -2.3630    -0.0090 C.3   1 <1>   0.2800 
 22 H        1.0380    -1.8780    -0.9930 H     1 <1>   0.0000 
 23 H        0.0410    -2.4620     0.3550 H     1 <1>   0.0000 
 24 O        1.7700    -1.5060     0.8990 O.3   1 <1>  -0.3630 
 25 N        8.0460    -0.3700    -0.0920 N.pl3 1 <1>  -0.5500 
 26 H        7.5710     0.5120    -0.2050 H     1 <1>   0.4000 
@<TRIPOS>BOND
  1   1   2  1   
  2   2   3  2   
  3   3   4  1   
  4   3  25  1   
  5   4   5  1   
  6   5   6  1   
  7   5   7  2   
  8   7   8  1   
  9   7  25  1   
 10   8   9  ar  
 11   8  15  ar  
 12   9  10  1   
 13   9  11  ar  
 14  11  12  1   
 15  11  13  ar  
 16  13  14  ar  
 17  13  24  1   
 18  14  15  ar  
 19  14  17  1   
 20  15  16  1   
 21  17  18  1   
 22  18  19  1   
 23  18  20  1   
 24  18  21  1   
 25  21  22  1   
 26  21  23  1   
 27  21  24  1   
 28  25  26  1   
@<TRIPOS>SUBSTRUCTURE
  1 ****   8 GROUP 4 **** **** 0

# MOE 2022.02 (io_trps.svl 2020.11)

@<TRIPOS>MOLECULE
LCSOL155
20 21 1 0 0 
SMALL
USER_CHARGES


@<TRIPOS>ATOM
  1 H       -0.3160    -3.5380    -0.0090 H     1 <1>   0.4500 
  2 O        0.6390    -3.7110    -0.0080 O.3   1 <1>  -0.5320 
  3 C        1.2980    -2.5160    -0.0050 C.ar  1 <1>   0.0820 
  4 C        0.6070    -1.3110    -0.0040 C.ar  1 <1>  -0.1500 
  5 H       -0.4780    -1.2810    -0.0060 H     1 <1>   0.1500 
  6 C        1.3250    -0.1180    -0.0010 C.ar  1 <1>  -0.1500 
  7 H        0.8000     0.8340     0.0000 H     1 <1>   0.1500 
  8 C        2.7250    -0.1400     0.0010 C.ar  1 <1>  -0.1500 
  9 H        3.2490     0.8120     0.0040 H     1 <1>   0.1500 
 10 C        3.4310    -1.3550     0.0000 C.ar  1 <1>   0.0540 
 11 C        4.8900    -1.3500     0.0010 C.2   1 <1>  -0.0540 
 12 C        5.8250    -0.2860     0.0000 C.2   1 <1>   0.1390 
 13 H        5.6380     0.7790    -0.0010 H     1 <1>   0.1500 
 14 N        7.0930    -0.7050     0.0020 N.2   1 <1>  -0.7070 
 15 N        6.9790    -2.0410     0.0040 N.pl3 1 <1>   0.3000 
 16 H        7.8280    -2.5960     0.0050 H     1 <1>   0.2700 
 17 C        5.6850    -2.4770     0.0040 C.2   1 <1>  -0.3020 
 18 H        5.4670    -3.5350     0.0050 H     1 <1>   0.1500 
 19 C        2.6920    -2.5460    -0.0030 C.ar  1 <1>  -0.1500 
 20 H        3.1790    -3.5160    -0.0050 H     1 <1>   0.1500 
@<TRIPOS>BOND
  1   1   2  1   
  2   2   3  1   
  3   3   4  ar  
  4   3  19  ar  
  5   4   5  1   
  6   4   6  ar  
  7   6   7  1   
  8   6   8  ar  
  9   8   9  1   
 10   8  10  ar  
 11  10  11  1   
 12  10  19  ar  
 13  11  12  1   
 14  11  17  2   
 15  12  13  1   
 16  12  14  2   
 17  14  15  1   
 18  15  16  1   
 19  15  17  1   
 20  17  18  1   
 21  19  20  1   
@<TRIPOS>SUBSTRUCTURE
  1 ****  10 GROUP 4 **** **** 0

# MOE 2022.02 (io_trps.svl 2020.11)

@<TRIPOS>MOLECULE
LCSOL156
28 29 1 0 0 
SMALL
USER_CHARGES


@<TRIPOS>ATOM
  1 H       -6.0180    -3.8830     0.8660 H     1 <1>   0.1500 
  2 C       -5.6920    -2.8760     0.6240 C.ar  1 <1>  -0.1500 
  3 C       -4.5820    -2.6640    -0.1920 C.ar  1 <1>  -0.1500 
  4 H       -4.0380    -3.5170    -0.5940 H     1 <1>   0.1500 
  5 C       -4.1770    -1.3550    -0.4730 C.ar  1 <1>  -0.0090 
  6 S       -2.7790    -1.0860    -1.5270 S.o2  1 <1>   1.2950 
  7 O       -2.6790    -2.1850    -2.4710 O.2   1 <1>  -0.6500 
  8 O       -2.7800     0.3000    -1.9620 O.2   1 <1>  -0.6500 
  9 N       -1.4080    -1.2410    -0.4970 N.pl3 1 <1>   0.5840 
 10 N       -1.3790    -1.8650     0.7110 N.2   1 <1>  -0.7070 
 11 C       -0.1050    -1.7470     1.1070 C.2   1 <1>   0.1080 
 12 C        0.3280    -2.3160     2.4070 C.3   1 <1>   0.1810 
 13 H       -0.2140    -1.8420     3.2320 H     1 <1>   0.0000 
 14 H        0.1350    -3.3930     2.4380 H     1 <1>   0.0000 
 15 H        1.3990    -2.1590     2.5690 H     1 <1>   0.0000 
 16 C        0.6810    -1.0520     0.1580 C.2   1 <1>  -0.1500 
 17 H        1.7350    -0.8150     0.2140 H     1 <1>   0.1500 
 18 C       -0.1810    -0.7440    -0.8660 C.2   1 <1>  -0.3020 
 19 H       -0.0420    -0.2260    -1.8050 H     1 <1>   0.1500 
 20 C       -4.8880    -0.2590     0.0340 C.ar  1 <1>  -0.1500 
 21 H       -4.5730     0.7570    -0.1980 H     1 <1>   0.1500 
 22 C       -6.0120    -0.4710     0.8430 C.ar  1 <1>  -0.1440 
 23 C       -6.7670     0.6820     1.4320 C.3   1 <1>   0.1440 
 24 H       -6.4270     0.8680     2.4560 H     1 <1>   0.0000 
 25 H       -6.6180     1.5920     0.8430 H     1 <1>   0.0000 
 26 H       -7.8420     0.4750     1.4440 H     1 <1>   0.0000 
 27 C       -6.3910    -1.7850     1.1370 C.ar  1 <1>   0.1900 
 28 F       -7.4500    -2.0120     1.9270 F     1 <1>  -0.1900 
@<TRIPOS>BOND
  1   1   2  1   
  2   2   3  ar  
  3   2  27  ar  
  4   3   4  1   
  5   3   5  ar  
  6   5   6  1   
  7   5  20  ar  
  8   6   7  2   
  9   6   8  2   
 10   6   9  1   
 11   9  10  1   
 12   9  18  1   
 13  10  11  2   
 14  11  12  1   
 15  11  16  1   
 16  12  13  1   
 17  12  14  1   
 18  12  15  1   
 19  16  17  1   
 20  16  18  2   
 21  18  19  1   
 22  20  21  1   
 23  20  22  ar  
 24  22  23  1   
 25  22  27  ar  
 26  23  24  1   
 27  23  25  1   
 28  23  26  1   
 29  27  28  1   
@<TRIPOS>SUBSTRUCTURE
  1 ****   5 GROUP 4 **** **** 0

# MOE 2022.02 (io_trps.svl 2020.11)

@<TRIPOS>MOLECULE
LCSOL157
28 29 1 0 0 
SMALL
USER_CHARGES


@<TRIPOS>ATOM
  1 H       -1.9980     1.0650     0.3400 H     1 <1>   0.1500 
  2 C       -1.6470     2.0930     0.2900 C.ar  1 <1>  -0.1500 
  3 C       -2.4870     3.1320     0.6830 C.ar  1 <1>  -0.1500 
  4 H       -3.4910     2.9060     1.0370 H     1 <1>   0.1500 
  5 C       -2.0630     4.4630     0.6250 C.ar  1 <1>  -0.1500 
  6 H       -2.7220     5.2690     0.9290 H     1 <1>   0.1500 
  7 C       -0.7660     4.7120     0.1590 C.ar  1 <1>  -0.1520 
  8 C        0.1020     3.6940    -0.2390 C.ar  1 <1>   0.0000 
  9 C       -0.3530     2.3600    -0.1720 C.ar  1 <1>  -0.1500 
 10 H        0.2940     1.5430    -0.4800 H     1 <1>   0.1500 
 11 C        1.3140     4.3260    -0.6400 C.2   1 <1>   0.0550 
 12 S        2.7410     3.5000    -1.2260 S.3   1 <1>  -0.2850 
 13 C        3.5930     3.2210     0.3600 C.3   1 <1>   0.2300 
 14 H        3.8060     4.1880     0.8290 H     1 <1>   0.0000 
 15 H        2.9320     2.6560     1.0270 H     1 <1>   0.0000 
 16 C        4.8930     2.4470     0.1270 C.3   1 <1>   0.2700 
 17 H        5.5590     3.0160    -0.5320 H     1 <1>   0.0000 
 18 H        4.6860     1.4840    -0.3550 H     1 <1>   0.0000 
 19 N        5.6010     2.1950     1.3860 N.3   1 <1>  -0.9900 
 20 H        6.4500     1.6650     1.1900 H     1 <1>   0.3600 
 21 H        5.0300     1.6020     1.9870 H     1 <1>   0.3600 
 22 C        1.1690     5.6900    -0.4950 C.2   1 <1>  -0.3320 
 23 C        2.1000     6.8120    -0.7710 C.3   1 <1>   0.1800 
 24 H        2.9970     6.7260    -0.1490 H     1 <1>   0.0000 
 25 H        2.4060     6.8070    -1.8220 H     1 <1>   0.0000 
 26 H        1.6370     7.7820    -0.5610 H     1 <1>   0.0000 
 27 N       -0.0980     5.9040    -0.0070 N.pl3 1 <1>   0.0330 
 28 H       -0.4950     6.8100     0.2020 H     1 <1>   0.2700 
@<TRIPOS>BOND
  1   1   2  1   
  2   2   3  ar  
  3   2   9  ar  
  4   3   4  1   
  5   3   5  ar  
  6   5   6  1   
  7   5   7  ar  
  8   7   8  ar  
  9   7  27  1   
 10   8   9  ar  
 11   8  11  1   
 12   9  10  1   
 13  11  12  1   
 14  11  22  2   
 15  12  13  1   
 16  13  14  1   
 17  13  15  1   
 18  13  16  1   
 19  16  17  1   
 20  16  18  1   
 21  16  19  1   
 22  19  20  1   
 23  19  21  1   
 24  22  23  1   
 25  22  27  1   
 26  23  24  1   
 27  23  25  1   
 28  23  26  1   
 29  27  28  1   
@<TRIPOS>SUBSTRUCTURE
  1 ****  11 GROUP 4 **** **** 0

# MOE 2022.02 (io_trps.svl 2020.11)

@<TRIPOS>MOLECULE
LCSOL158
22 22 1 0 0 
SMALL
USER_CHARGES


@<TRIPOS>ATOM
  1 H        0.6860    -0.5430    -0.1720 H     1 <1>   0.0000 
  2 C        0.7030     0.4430     0.3090 C.3   1 <1>   0.2000 
  3 H        0.5670     0.2720     1.3840 H     1 <1>   0.0000 
  4 C        2.0190     1.0520     0.0670 C.1   1 <1>   0.3570 
  5 N        3.0590     1.5310    -0.1220 N.1   1 <1>  -0.5570 
  6 C       -0.4470     1.3040    -0.2420 C.3   1 <1>   0.0000 
  7 H       -0.2350     1.5440    -1.2930 H     1 <1>   0.0000 
  8 C       -1.7650     0.5120    -0.1930 C.3   1 <1>   0.0000 
  9 H       -1.9650     0.1850     0.8350 H     1 <1>   0.0000 
 10 H       -1.6790    -0.3950    -0.8030 H     1 <1>   0.0000 
 11 C       -2.9460     1.3400    -0.6960 C.3   1 <1>   0.0000 
 12 H       -2.8160     1.5500    -1.7640 H     1 <1>   0.0000 
 13 H       -3.8710     0.7610    -0.5940 H     1 <1>   0.0000 
 14 C       -3.0760     2.6530     0.0680 C.3   1 <1>   0.0000 
 15 H       -3.3470     2.4440     1.1110 H     1 <1>   0.0000 
 16 H       -3.8900     3.2500    -0.3590 H     1 <1>   0.0000 
 17 C       -1.7780     3.4510     0.0310 C.3   1 <1>   0.0000 
 18 H       -1.5820     3.7840    -0.9960 H     1 <1>   0.0000 
 19 H       -1.8830     4.3530     0.6440 H     1 <1>   0.0000 
 20 C       -0.5920     2.6280     0.5310 C.3   1 <1>   0.0000 
 21 H       -0.7240     2.4200     1.6010 H     1 <1>   0.0000 
 22 H        0.3190     3.2290     0.4350 H     1 <1>   0.0000 
@<TRIPOS>BOND
  1   1   2  1   
  2   2   3  1   
  3   2   4  1   
  4   2   6  1   
  5   4   5  3   
  6   6   7  1   
  7   6   8  1   
  8   6  20  1   
  9   8   9  1   
 10   8  10  1   
 11   8  11  1   
 12  11  12  1   
 13  11  13  1   
 14  11  14  1   
 15  14  15  1   
 16  14  16  1   
 17  14  17  1   
 18  17  18  1   
 19  17  19  1   
 20  17  20  1   
 21  20  21  1   
 22  20  22  1   
@<TRIPOS>SUBSTRUCTURE
  1 ****   6 GROUP 4 **** **** 0

# MOE 2022.02 (io_trps.svl 2020.11)

@<TRIPOS>MOLECULE
LCSOL159
22 22 1 0 0 
SMALL
USER_CHARGES


@<TRIPOS>ATOM
  1 H       -7.1580     6.0390    -0.1810 H     1 <1>   0.1500 
  2 C       -6.1010     5.7900    -0.1630 C.ar  1 <1>   0.1600 
  3 N       -5.8090     4.4900    -0.3740 N.ar  1 <1>  -0.6200 
  4 C       -4.4970     4.1570    -0.3570 C.ar  1 <1>   0.1600 
  5 H       -4.3090     3.1010    -0.5310 H     1 <1>   0.1500 
  6 C       -3.4510     5.0540    -0.1380 C.ar  1 <1>   0.1170 
  7 N       -2.1310     4.5680    -0.1470 N.am  1 <1>  -0.5470 
  8 H       -1.9890     3.5810    -0.3120 H     1 <1>   0.3700 
  9 C       -0.9760     5.2680     0.0430 C.2   1 <1>   0.7800 
 10 O       -0.8390     6.4610     0.2610 O.2   1 <1>  -0.5700 
 11 O        0.0640     4.3980    -0.0480 O.3   1 <1>  -0.4300 
 12 C        1.3570     5.0070     0.1370 C.3   1 <1>   0.2800 
 13 H        1.4000     5.4690     1.1300 H     1 <1>   0.0000 
 14 H        1.5070     5.7760    -0.6290 H     1 <1>   0.0000 
 15 C        2.4580     3.9700     0.0230 C.3   1 <1>   1.0200 
 16 F        2.3230     2.9980     0.9530 F     1 <1>  -0.3400 
 17 F        3.6720     4.5400     0.2050 F     1 <1>  -0.3400 
 18 F        2.4640     3.3830    -1.1940 F     1 <1>  -0.3400 
 19 C       -3.7970     6.3860     0.0750 C.ar  1 <1>  -0.1500 
 20 H       -3.0510     7.1540     0.2530 H     1 <1>   0.1500 
 21 C       -5.1410     6.7630     0.0630 C.ar  1 <1>  -0.1500 
 22 H       -5.4290     7.7950     0.2280 H     1 <1>   0.1500 
@<TRIPOS>BOND
  1   1   2  1   
  2   2   3  ar  
  3   2  21  ar  
  4   3   4  ar  
  5   4   5  1   
  6   4   6  ar  
  7   6   7  1   
  8   6  19  ar  
  9   7   8  1   
 10   7   9  am  
 11   9  10  2   
 12   9  11  1   
 13  11  12  1   
 14  12  13  1   
 15  12  14  1   
 16  12  15  1   
 17  15  16  1   
 18  15  17  1   
 19  15  18  1   
 20  19  20  1   
 21  19  21  ar  
 22  21  22  1   
@<TRIPOS>SUBSTRUCTURE
  1 ****   9 GROUP 4 **** **** 0

# MOE 2022.02 (io_trps.svl 2020.11)

@<TRIPOS>MOLECULE
LCSOL160
20 20 1 0 0 
SMALL
USER_CHARGES


@<TRIPOS>ATOM
  1 H       -2.5960     5.8480     0.1200 H     1 <1>   0.1500 
  2 C       -1.8960     5.0920    -0.2060 C.2   1 <1>  -0.1100 
  3 S       -1.9600     4.4940    -1.8040 S.3   1 <1>  -0.0800 
  4 C       -0.6440     3.4410    -1.5200 C.2   1 <1>  -0.1100 
  5 H       -0.2830     2.8060    -2.3170 H     1 <1>   0.1500 
  6 C       -0.1510     3.5290    -0.2290 C.2   1 <1>  -0.1810 
  7 C        0.9920     2.7210     0.3070 C.3   1 <1>   0.4510 
  8 H        0.9720     2.7310     1.4040 H     1 <1>   0.0000 
  9 H        0.8920     1.6800    -0.0240 H     1 <1>   0.0000 
 10 N        2.2280     3.3070    -0.1990 N.3   1 <1>  -0.9000 
 11 H        2.2690     4.2940     0.0620 H     1 <1>   0.3600 
 12 C        3.4160     2.6020     0.3330 C.3   1 <1>   0.2700 
 13 H        3.3680     2.5960     1.4290 H     1 <1>   0.0000 
 14 H        3.3930     1.5600    -0.0040 H     1 <1>   0.0000 
 15 C        4.7780     3.2010    -0.0650 C.3   1 <1>   1.0200 
 16 F        4.9840     3.1520    -1.3980 F     1 <1>  -0.3400 
 17 F        4.8710     4.4930     0.3280 F     1 <1>  -0.3400 
 18 F        5.7850     2.5220     0.5310 F     1 <1>  -0.3400 
 19 C       -0.8900     4.5010     0.5260 C.2   1 <1>  -0.1500 
 20 H       -0.6930     4.7520     1.5620 H     1 <1>   0.1500 
@<TRIPOS>BOND
  1   1   2  1   
  2   2   3  1   
  3   2  19  2   
  4   3   4  1   
  5   4   5  1   
  6   4   6  2   
  7   6   7  1   
  8   6  19  1   
  9   7   8  1   
 10   7   9  1   
 11   7  10  1   
 12  10  11  1   
 13  10  12  1   
 14  12  13  1   
 15  12  14  1   
 16  12  15  1   
 17  15  16  1   
 18  15  17  1   
 19  15  18  1   
 20  19  20  1   
@<TRIPOS>SUBSTRUCTURE
  1 ****  10 GROUP 4 **** **** 0

# MOE 2022.02 (io_trps.svl 2020.11)

@<TRIPOS>MOLECULE
LCSOL161
17 17 1 0 0 
SMALL
USER_CHARGES


@<TRIPOS>ATOM
  1 H        3.5110     1.7410    -0.6930 H     1 <1>   0.1500 
  2 C        2.6840     2.2590    -0.2280 C.2   1 <1>  -0.1100 
  3 S        2.9520     3.2780     1.1160 S.3   1 <1>  -0.0800 
  4 C        1.2880     3.6590     1.2280 C.2   1 <1>  -0.1100 
  5 H        0.9550     4.3350     2.0050 H     1 <1>   0.1500 
  6 C        0.5220     3.0290     0.2610 C.2   1 <1>  -0.1810 
  7 C       -0.9760     3.1790     0.1150 C.3   1 <1>   0.6610 
  8 H       -1.3830     3.4640     1.0950 H     1 <1>   0.0000 
  9 C       -1.2710     4.2470    -0.8700 C.1   1 <1>   0.3570 
 10 N       -1.5350     5.0940    -1.6210 N.1   1 <1>  -0.5570 
 11 O       -1.5630     1.9240    -0.2790 O.3   1 <1>  -0.5600 
 12 C       -2.9430     1.8340     0.0510 C.3   1 <1>   0.2800 
 13 H       -3.5180     2.6190    -0.4510 H     1 <1>   0.0000 
 14 H       -3.3140     0.8630    -0.2890 H     1 <1>   0.0000 
 15 H       -3.0820     1.8980     1.1340 H     1 <1>   0.0000 
 16 C        1.3540     2.2110    -0.5810 C.2   1 <1>  -0.1500 
 17 H        0.9840     1.6140    -1.4070 H     1 <1>   0.1500 
@<TRIPOS>BOND
  1   1   2  1   
  2   2   3  1   
  3   2  16  2   
  4   3   4  1   
  5   4   5  1   
  6   4   6  2   
  7   6   7  1   
  8   6  16  1   
  9   7   8  1   
 10   7   9  1   
 11   7  11  1   
 12   9  10  3   
 13  11  12  1   
 14  12  13  1   
 15  12  14  1   
 16  12  15  1   
 17  16  17  1   
@<TRIPOS>SUBSTRUCTURE
  1 ****   6 GROUP 4 **** **** 0

# MOE 2022.02 (io_trps.svl 2020.11)

@<TRIPOS>MOLECULE
LCSOL162
35 35 1 0 0 
SMALL
USER_CHARGES


@<TRIPOS>ATOM
  1 H        1.2960    -3.4500    -2.0490 H     1 <1>   0.0000 
  2 C        1.5860    -3.7050    -1.0220 C.3   1 <1>   0.4700 
  3 H        2.0930    -2.8240    -0.6080 H     1 <1>   0.0000 
  4 C        2.5800    -4.8020    -1.0460 C.1   1 <1>   0.3570 
  5 N        3.3620    -5.6600    -1.0890 N.1   1 <1>  -0.5570 
  6 N        0.3900    -3.9960    -0.2000 N.3   1 <1>  -0.8100 
  7 C       -0.4250    -5.0850    -0.7940 C.3   1 <1>   0.2700 
  8 H       -0.7090    -4.8220    -1.8220 H     1 <1>   0.0000 
  9 H        0.1570    -6.0130    -0.8380 H     1 <1>   0.0000 
 10 C       -1.7030    -5.3690     0.0190 C.3   1 <1>   0.3000 
 11 H       -2.2980    -6.1350    -0.4870 H     1 <1>   0.0000 
 12 H       -1.4400    -5.7570     1.0110 H     1 <1>   0.0000 
 13 N       -2.4770    -4.1500     0.2230 N.am  1 <1>  -0.6600 
 14 C       -3.8220    -4.1170    -0.0790 C.2   1 <1>   0.7800 
 15 O       -4.4350    -5.0720    -0.5400 O.2   1 <1>  -0.5700 
 16 O       -4.3780    -2.9080     0.1880 O.3   1 <1>  -0.4300 
 17 C       -5.7880    -2.6610    -0.0480 C.3   1 <1>   0.2800 
 18 C       -6.0020    -1.2010     0.3810 C.3   1 <1>   0.0000 
 19 H       -5.7270    -1.0590     1.4330 H     1 <1>   0.0000 
 20 H       -7.0430    -0.8870     0.2510 H     1 <1>   0.0000 
 21 H       -5.3620    -0.5270    -0.1990 H     1 <1>   0.0000 
 22 C       -6.1360    -2.7890    -1.5340 C.3   1 <1>   0.0000 
 23 H       -5.4390    -2.2080    -2.1490 H     1 <1>   0.0000 
 24 H       -7.1540    -2.4380    -1.7360 H     1 <1>   0.0000 
 25 H       -6.0740    -3.8240    -1.8830 H     1 <1>   0.0000 
 26 C       -6.6650    -3.5620     0.8290 C.3   1 <1>   0.0000 
 27 H       -7.7180    -3.2620     0.7790 H     1 <1>   0.0000 
 28 H       -6.6100    -4.6110     0.5230 H     1 <1>   0.0000 
 29 H       -6.3410    -3.5220     1.8740 H     1 <1>   0.0000 
 30 C       -1.7190    -3.0250     0.7660 C.3   1 <1>   0.3000 
 31 H       -2.3160    -2.1100     0.7950 H     1 <1>   0.0000 
 32 H       -1.4580    -3.2810     1.8000 H     1 <1>   0.0000 
 33 C       -0.4400    -2.7760    -0.0570 C.3   1 <1>   0.2700 
 34 H       -0.7230    -2.3960    -1.0480 H     1 <1>   0.0000 
 35 H        0.1420    -1.9920     0.4430 H     1 <1>   0.0000 
@<TRIPOS>BOND
  1   1   2  1   
  2   2   3  1   
  3   2   4  1   
  4   2   6  1   
  5   4   5  3   
  6   6   7  1   
  7   6  33  1   
  8   7   8  1   
  9   7   9  1   
 10   7  10  1   
 11  10  11  1   
 12  10  12  1   
 13  10  13  1   
 14  13  14  am  
 15  13  30  1   
 16  14  15  2   
 17  14  16  1   
 18  16  17  1   
 19  17  18  1   
 20  17  22  1   
 21  17  26  1   
 22  18  19  1   
 23  18  20  1   
 24  18  21  1   
 25  22  23  1   
 26  22  24  1   
 27  22  25  1   
 28  26  27  1   
 29  26  28  1   
 30  26  29  1   
 31  30  31  1   
 32  30  32  1   
 33  30  33  1   
 34  33  34  1   
 35  33  35  1   
@<TRIPOS>SUBSTRUCTURE
  1 ****  13 GROUP 4 **** **** 0

# MOE 2022.02 (io_trps.svl 2020.11)

@<TRIPOS>MOLECULE
LCSOL163
36 37 1 0 0 
SMALL
USER_CHARGES


@<TRIPOS>ATOM
  1 H       -0.4660    -2.3120     1.5110 H     1 <1>   0.1500 
  2 C       -0.4310    -1.4260     0.8790 C.ar  1 <1>  -0.1500 
  3 C       -1.6150    -0.9220     0.3250 C.ar  1 <1>   0.0860 
  4 C       -2.8880    -1.6350     0.6240 C.2   1 <1>   0.4690 
  5 O       -2.8750    -2.8250     0.9230 O.2   1 <1>  -0.5700 
  6 C       -4.1670    -0.8550     0.5990 C.2   1 <1>   0.1230 
  7 C       -5.2460    -1.3280    -0.0500 C.2   1 <1>  -0.1240 
  8 C       -5.3260    -2.5920    -0.8680 C.3   1 <1>   0.1380 
  9 H       -4.3310    -2.9200    -1.1900 H     1 <1>   0.0000 
 10 H       -5.8710    -2.3960    -1.8000 H     1 <1>   0.0000 
 11 C       -6.0060    -3.7270    -0.1150 C.3   1 <1>   0.0000 
 12 H       -5.4680    -3.9710     0.8070 H     1 <1>   0.0000 
 13 H       -7.0370    -3.4720     0.1510 H     1 <1>   0.0000 
 14 H       -6.0340    -4.6270    -0.7370 H     1 <1>   0.0000 
 15 C       -6.4810    -0.4930    -0.0060 C.2   1 <1>   0.6160 
 16 O       -7.5090    -0.8190    -0.5890 O.2   1 <1>  -0.5700 
 17 N       -6.4130     0.6690     0.7090 N.am  1 <1>  -0.4900 
 18 H       -7.2440     1.2380     0.7480 H     1 <1>   0.3700 
 19 C       -5.3140     1.1230     1.3710 C.2   1 <1>   0.6900 
 20 O       -5.3090     2.1790     1.9920 O.2   1 <1>  -0.5700 
 21 N       -4.2120     0.3280     1.2960 N.am  1 <1>  -0.5390 
 22 H       -3.3980     0.6590     1.8030 H     1 <1>   0.3700 
 23 C       -1.5690     0.2100    -0.5000 C.ar  1 <1>  -0.1500 
 24 H       -2.4730     0.5990    -0.9640 H     1 <1>   0.1500 
 25 C       -0.3490     0.8500    -0.7560 C.ar  1 <1>  -0.1440 
 26 C       -0.3010     2.0860    -1.6060 C.3   1 <1>   0.1440 
 27 H        0.6370     2.1350    -2.1690 H     1 <1>   0.0000 
 28 H       -0.3840     2.9770    -0.9750 H     1 <1>   0.0000 
 29 H       -1.1170     2.0930    -2.3360 H     1 <1>   0.0000 
 30 C        0.8220     0.3530    -0.1690 C.ar  1 <1>  -0.1500 
 31 H        1.7690     0.8610    -0.3460 H     1 <1>   0.1500 
 32 C        0.7950    -0.7960     0.6330 C.ar  1 <1>  -0.1440 
 33 C        2.0520    -1.3100     1.2690 C.3   1 <1>   0.1440 
 34 H        2.0100    -2.3980     1.3940 H     1 <1>   0.0000 
 35 H        2.1910    -0.8460     2.2500 H     1 <1>   0.0000 
 36 H        2.9250    -1.0890     0.6460 H     1 <1>   0.0000 
@<TRIPOS>BOND
  1   1   2  1   
  2   2   3  ar  
  3   2  32  ar  
  4   3   4  1   
  5   3  23  ar  
  6   4   5  2   
  7   4   6  1   
  8   6   7  2   
  9   6  21  1   
 10   7   8  1   
 11   7  15  1   
 12   8   9  1   
 13   8  10  1   
 14   8  11  1   
 15  11  12  1   
 16  11  13  1   
 17  11  14  1   
 18  15  16  2   
 19  15  17  am  
 20  17  18  1   
 21  17  19  am  
 22  19  20  2   
 23  19  21  am  
 24  21  22  1   
 25  23  24  1   
 26  23  25  ar  
 27  25  26  1   
 28  25  30  ar  
 29  26  27  1   
 30  26  28  1   
 31  26  29  1   
 32  30  31  1   
 33  30  32  ar  
 34  32  33  1   
 35  33  34  1   
 36  33  35  1   
 37  33  36  1   
@<TRIPOS>SUBSTRUCTURE
  1 ****   6 GROUP 4 **** **** 0

# MOE 2022.02 (io_trps.svl 2020.11)

@<TRIPOS>MOLECULE
LCSOL164
21 21 1 0 0 
SMALL
USER_CHARGES


@<TRIPOS>ATOM
  1 H       -1.3120     5.6260     0.2850 H     1 <1>   0.1500 
  2 C       -1.2210     4.5470     0.1930 C.ar  1 <1>  -0.1500 
  3 C       -2.3630     3.7530     0.1490 C.ar  1 <1>  -0.1500 
  4 H       -3.3450     4.2150     0.2070 H     1 <1>   0.1500 
  5 C       -2.2270     2.3750     0.0300 C.ar  1 <1>   0.1110 
  6 BR      -3.7700     1.2830    -0.0310 Br    1 <1>  -0.1110 
  7 C       -0.9600     1.7890    -0.0450 C.ar  1 <1>  -0.1500 
  8 H       -0.8800     0.7090    -0.1380 H     1 <1>   0.1500 
  9 C        0.2020     2.5720    -0.0030 C.ar  1 <1>   0.1000 
 10 N        1.4340     1.9450    -0.0810 N.pl3 1 <1>  -0.8690 
 11 H        1.4370     0.9350    -0.1670 H     1 <1>   0.4000 
 12 C        2.7050     2.6560    -0.0470 C.3   1 <1>   0.3690 
 13 H        2.7890     3.2190     0.8910 H     1 <1>   0.0000 
 14 H        2.7500     3.3750    -0.8750 H     1 <1>   0.0000 
 15 C        3.8720     1.6780    -0.1590 C.3   1 <1>   0.2000 
 16 H        3.8300     0.9500     0.6590 H     1 <1>   0.0000 
 17 H        3.7940     1.1080    -1.0930 H     1 <1>   0.0000 
 18 C        5.1490     2.3960    -0.1200 C.1   1 <1>   0.3570 
 19 N        6.1580     2.9670    -0.0890 N.1   1 <1>  -0.5570 
 20 C        0.0470     3.9590     0.1180 C.ar  1 <1>  -0.1500 
 21 H        0.9120     4.6150     0.1550 H     1 <1>   0.1500 
@<TRIPOS>BOND
  1   1   2  1   
  2   2   3  ar  
  3   2  20  ar  
  4   3   4  1   
  5   3   5  ar  
  6   5   6  1   
  7   5   7  ar  
  8   7   8  1   
  9   7   9  ar  
 10   9  10  1   
 11   9  20  ar  
 12  10  11  1   
 13  10  12  1   
 14  12  13  1   
 15  12  14  1   
 16  12  15  1   
 17  15  16  1   
 18  15  17  1   
 19  15  18  1   
 20  18  19  3   
 21  20  21  1   
@<TRIPOS>SUBSTRUCTURE
  1 ****   9 GROUP 4 **** **** 0

# MOE 2022.02 (io_trps.svl 2020.11)

@<TRIPOS>MOLECULE
LCSOL165
19 19 1 0 0 
SMALL
USER_CHARGES


@<TRIPOS>ATOM
  1 H       -0.4910     3.1620     0.8810 H     1 <1>   0.4000 
  2 N        0.4580     2.8860     1.1600 N.2   1 <1>  -0.8500 
  3 C        0.8300     1.8080     0.5470 C.2   1 <1>   0.3280 
  4 C        2.1930     1.1950     0.7540 C.3   1 <1>   0.3520 
  5 H        2.4660     1.2640     1.8120 H     1 <1>   0.0000 
  6 C        3.2490     1.8320    -0.1200 C.2   1 <1>   0.6590 
  7 O        3.0400     2.3460    -1.2130 O.2   1 <1>  -0.5700 
  8 O        4.4810     1.7150     0.4590 O.3   1 <1>  -0.4300 
  9 C        5.5450     2.2590    -0.3230 C.3   1 <1>   0.2800 
 10 H        6.4780     2.1210     0.2310 H     1 <1>   0.0000 
 11 H        5.3940     3.3300    -0.4850 H     1 <1>   0.0000 
 12 H        5.6290     1.7290    -1.2770 H     1 <1>   0.0000 
 13 S        1.9640    -0.5550     0.2430 S.3   1 <1>  -0.4600 
 14 C        0.1960    -0.3920    -0.1300 C.3   1 <1>   0.2300 
 15 H       -0.3710    -0.7130     0.7500 H     1 <1>   0.0000 
 16 H       -0.0850    -1.0280    -0.9730 H     1 <1>   0.0000 
 17 C       -0.0500     1.0750    -0.4240 C.3   1 <1>   0.0610 
 18 H       -1.1040     1.3390    -0.2950 H     1 <1>   0.0000 
 19 H        0.2550     1.3370    -1.4430 H     1 <1>   0.0000 
@<TRIPOS>BOND
  1   1   2  1   
  2   2   3  2   
  3   3   4  1   
  4   3  17  1   
  5   4   5  1   
  6   4   6  1   
  7   4  13  1   
  8   6   7  2   
  9   6   8  1   
 10   8   9  1   
 11   9  10  1   
 12   9  11  1   
 13   9  12  1   
 14  13  14  1   
 15  14  15  1   
 16  14  16  1   
 17  14  17  1   
 18  17  18  1   
 19  17  19  1   
@<TRIPOS>SUBSTRUCTURE
  1 ****   4 GROUP 4 **** **** 0

# MOE 2022.02 (io_trps.svl 2020.11)

@<TRIPOS>MOLECULE
LCSOL166
16 16 1 0 0 
SMALL
USER_CHARGES


@<TRIPOS>ATOM
  1 H       -5.1150     3.6790     0.2260 H     1 <1>   0.1500 
  2 C       -4.4690     2.8450    -0.0120 C.2   1 <1>  -0.1100 
  3 S       -2.7800     2.9750     0.2160 S.3   1 <1>  -0.0800 
  4 C       -2.5120     1.3920    -0.3370 C.2   1 <1>   0.1040 
  5 N       -1.2520     0.8280    -0.4080 N.am  1 <1>  -0.4940 
  6 H       -1.2170    -0.1220    -0.7540 H     1 <1>   0.3700 
  7 C       -0.0520     1.4240    -0.0580 C.2   1 <1>   0.5690 
  8 O        0.1370     2.5540     0.3760 O.2   1 <1>  -0.5700 
  9 C        1.1100     0.4860    -0.2770 C.3   1 <1>   0.0610 
 10 H        0.9740    -0.4200     0.3200 H     1 <1>   0.0000 
 11 H        1.1770     0.2200    -1.3360 H     1 <1>   0.0000 
 12 H        2.0410     0.9720     0.0260 H     1 <1>   0.0000 
 13 C       -3.6890     0.7680    -0.6930 C.2   1 <1>  -0.1500 
 14 H       -3.7460    -0.2440    -1.0710 H     1 <1>   0.1500 
 15 C       -4.8250     1.6100    -0.5050 C.2   1 <1>  -0.1500 
 16 H       -5.8480     1.3250    -0.7190 H     1 <1>   0.1500 
@<TRIPOS>BOND
  1   1   2  1   
  2   2   3  1   
  3   2  15  2   
  4   3   4  1   
  5   4   5  1   
  6   4  13  2   
  7   5   6  1   
  8   5   7  am  
  9   7   8  2   
 10   7   9  1   
 11   9  10  1   
 12   9  11  1   
 13   9  12  1   
 14  13  14  1   
 15  13  15  1   
 16  15  16  1   
@<TRIPOS>SUBSTRUCTURE
  1 ****   4 GROUP 4 **** **** 0

# MOE 2022.02 (io_trps.svl 2020.11)

@<TRIPOS>MOLECULE
LCSOL167
19 20 1 0 0 
SMALL
USER_CHARGES


@<TRIPOS>ATOM
  1 H        1.9580     3.2800     0.0210 H     1 <1>   0.1500 
  2 C        1.0490     2.6880     0.0340 C.ar  1 <1>  -0.1500 
  3 C       -0.1740     3.3700     0.0970 C.ar  1 <1>  -0.1500 
  4 H       -0.2110     4.4530     0.1300 H     1 <1>   0.1500 
  5 C       -1.3290     2.6200     0.1150 C.ar  1 <1>   0.0820 
  6 C       -1.2970     1.2470     0.0760 C.ar  1 <1>   0.0820 
  7 C       -0.1090     0.5510     0.0150 C.ar  1 <1>  -0.1500 
  8 H       -0.1010    -0.5320    -0.0160 H     1 <1>   0.1500 
  9 C        1.0850     1.2810    -0.0090 C.ar  1 <1>   0.0820 
 10 O        2.2170     0.5130    -0.0740 O.3   1 <1>  -0.3630 
 11 C        3.4590     1.1990    -0.1530 C.3   1 <1>   0.2800 
 12 H        4.2530     0.4490    -0.2210 H     1 <1>   0.0000 
 13 H        3.6400     1.7930     0.7490 H     1 <1>   0.0000 
 14 H        3.5110     1.8200    -1.0540 H     1 <1>   0.0000 
 15 O       -2.5420     0.6990     0.1030 O.3   1 <1>  -0.3630 
 16 C       -3.3590     1.8860     0.1580 C.3   1 <1>   0.5600 
 17 H       -3.9740     1.8460     1.0650 H     1 <1>   0.0000 
 18 H       -4.0220     1.8960    -0.7150 H     1 <1>   0.0000 
 19 O       -2.5960     3.1100     0.1720 O.3   1 <1>  -0.3630 
@<TRIPOS>BOND
  1   1   2  1   
  2   2   3  ar  
  3   2   9  ar  
  4   3   4  1   
  5   3   5  ar  
  6   5   6  ar  
  7   5  19  1   
  8   6   7  ar  
  9   6  15  1   
 10   7   8  1   
 11   7   9  ar  
 12   9  10  1   
 13  10  11  1   
 14  11  12  1   
 15  11  13  1   
 16  11  14  1   
 17  15  16  1   
 18  16  17  1   
 19  16  18  1   
 20  16  19  1   
@<TRIPOS>SUBSTRUCTURE
  1 ****   6 GROUP 4 **** **** 0

# MOE 2022.02 (io_trps.svl 2020.11)

@<TRIPOS>MOLECULE
LCSOL168
21 22 1 0 0 
SMALL
USER_CHARGES


@<TRIPOS>ATOM
  1 H        4.7440     5.6710     0.0640 H     1 <1>   0.1500 
  2 C        3.9620     4.9300    -0.0270 C.2   1 <1>  -0.1100 
  3 S        4.3520     3.2970    -0.3350 S.3   1 <1>  -0.0800 
  4 C        2.6980     2.8460    -0.3370 C.2   1 <1>  -0.1100 
  5 H        2.4490     1.8110    -0.5210 H     1 <1>   0.1500 
  6 C        1.8490     3.9130    -0.1010 C.2   1 <1>  -0.0460 
  7 C        0.4050     3.8240    -0.0460 C.2   1 <1>   0.2170 
  8 N       -0.2290     5.0460    -0.1310 N.2   1 <1>  -0.6210 
  9 C       -1.5200     5.0630    -0.0920 C.2   1 <1>   0.4490 
 10 C       -2.2620     6.3650    -0.1810 C.3   1 <1>   0.0610 
 11 H       -1.9810     6.9950     0.6690 H     1 <1>   0.0000 
 12 H       -1.9760     6.8800    -1.1030 H     1 <1>   0.0000 
 13 H       -3.3450     6.2180    -0.1740 H     1 <1>   0.0000 
 14 N       -2.2830     3.9410     0.0320 N.am  1 <1>  -0.4900 
 15 H       -3.2910     3.9820     0.0600 H     1 <1>   0.3700 
 16 C       -1.7270     2.7040     0.1250 C.2   1 <1>   0.6160 
 17 O       -2.3920     1.6820     0.2380 O.2   1 <1>  -0.5700 
 18 C       -0.2620     2.6650     0.0820 C.2   1 <1>  -0.1360 
 19 H        0.2000     1.6930     0.1640 H     1 <1>   0.1500 
 20 C        2.6020     5.1240     0.0720 C.2   1 <1>  -0.1500 
 21 H        2.1600     6.0950     0.2620 H     1 <1>   0.1500 
@<TRIPOS>BOND
  1   1   2  1   
  2   2   3  1   
  3   2  20  2   
  4   3   4  1   
  5   4   5  1   
  6   4   6  2   
  7   6   7  1   
  8   6  20  1   
  9   7   8  1   
 10   7  18  2   
 11   8   9  2   
 12   9  10  1   
 13   9  14  1   
 14  10  11  1   
 15  10  12  1   
 16  10  13  1   
 17  14  15  1   
 18  14  16  am  
 19  16  17  2   
 20  16  18  1   
 21  18  19  1   
 22  20  21  1   
@<TRIPOS>SUBSTRUCTURE
  1 ****   7 GROUP 4 **** **** 0

# MOE 2022.02 (io_trps.svl 2020.11)

@<TRIPOS>MOLECULE
LCSOL169
24 25 1 0 0 
SMALL
USER_CHARGES


@<TRIPOS>ATOM
  1 H       -8.7420     2.6560     0.0010 H     1 <1>   0.1500 
  2 C       -8.4170     1.6180     0.0030 C.ar  1 <1>   0.1600 
  3 N       -7.0850     1.4280     0.0040 N.ar  1 <1>  -0.6200 
  4 C       -6.6830     0.1310     0.0070 C.ar  1 <1>   0.7060 
  5 C       -5.1880    -0.1020     0.0070 C.2   1 <1>   0.5440 
  6 O       -4.7210    -1.2360     0.0100 O.2   1 <1>  -0.5700 
  7 N       -4.4620     1.0840     0.0030 N.am  1 <1>  -0.5470 
  8 H       -5.0380     1.9230     0.0020 H     1 <1>   0.3700 
  9 C       -3.0670     1.2520     0.0010 C.ar  1 <1>   0.1170 
 10 C       -2.1550     0.1940     0.0020 C.ar  1 <1>  -0.1500 
 11 H       -2.4820    -0.8410     0.0050 H     1 <1>   0.1500 
 12 C       -0.7770     0.4450     0.0000 C.ar  1 <1>  -0.1500 
 13 H       -0.0830    -0.3900     0.0000 H     1 <1>   0.1500 
 14 C       -0.3090     1.7560    -0.0040 C.ar  1 <1>   0.1770 
 15 CL       1.3830     2.0630    -0.0080 Cl    1 <1>  -0.1770 
 16 C       -1.2070     2.8200    -0.0050 C.ar  1 <1>  -0.1500 
 17 H       -0.8470     3.8450    -0.0090 H     1 <1>   0.1500 
 18 C       -2.5820     2.5670    -0.0030 C.ar  1 <1>  -0.1500 
 19 H       -3.2670     3.4110    -0.0040 H     1 <1>   0.1500 
 20 N       -7.4940    -0.9450     0.0080 N.ar  1 <1>  -0.6200 
 21 C       -8.8120    -0.6830     0.0070 C.ar  1 <1>   0.1600 
 22 H       -9.4580    -1.5570     0.0080 H     1 <1>   0.1500 
 23 C       -9.3340     0.5910     0.0040 C.ar  1 <1>  -0.1500 
 24 H      -10.4000     0.7720     0.0040 H     1 <1>   0.1500 
@<TRIPOS>BOND
  1   1   2  1   
  2   2   3  ar  
  3   2  23  ar  
  4   3   4  ar  
  5   4   5  1   
  6   4  20  ar  
  7   5   6  2   
  8   5   7  am  
  9   7   8  1   
 10   7   9  1   
 11   9  10  ar  
 12   9  18  ar  
 13  10  11  1   
 14  10  12  ar  
 15  12  13  1   
 16  12  14  ar  
 17  14  15  1   
 18  14  16  ar  
 19  16  17  1   
 20  16  18  ar  
 21  18  19  1   
 22  20  21  ar  
 23  21  22  1   
 24  21  23  ar  
 25  23  24  1   
@<TRIPOS>SUBSTRUCTURE
  1 ****   7 GROUP 4 **** **** 0

# MOE 2022.02 (io_trps.svl 2020.11)

@<TRIPOS>MOLECULE
LCSOL170
27 28 1 0 0 
SMALL
USER_CHARGES


@<TRIPOS>ATOM
  1 H        4.7450     0.9070     1.8840 H     1 <1>   0.4000 
  2 O        3.8020     1.1150     1.7210 O.3   1 <1>  -0.6800 
  3 C        3.7910     1.7000     0.4130 C.3   1 <1>   0.4240 
  4 H        3.8140     0.8820    -0.3180 H     1 <1>   0.0000 
  5 C        2.4910     2.4690     0.2230 C.ar  1 <1>  -0.1440 
  6 C        2.4870     3.8760     0.1880 C.ar  1 <1>  -0.1500 
  7 H        3.3980     4.4500     0.3300 H     1 <1>   0.1500 
  8 C        1.3110     4.5910    -0.0250 C.ar  1 <1>  -0.1500 
  9 H        1.3320     5.6780    -0.0490 H     1 <1>   0.1500 
 10 C        0.1100     3.9160    -0.2050 C.ar  1 <1>  -0.1500 
 11 H       -0.7950     4.4950    -0.3730 H     1 <1>   0.1500 
 12 C        0.0620     2.5180    -0.1610 C.ar  1 <1>   0.0000 
 13 C       -1.1670     1.8600    -0.3360 C.ar  1 <1>  -0.1500 
 14 H       -2.0760     2.4310    -0.5110 H     1 <1>   0.1500 
 15 C       -1.2520     0.4700    -0.2850 C.ar  1 <1>  -0.1500 
 16 H       -2.2110    -0.0230    -0.4180 H     1 <1>   0.1500 
 17 C       -0.1090    -0.2780    -0.0500 C.ar  1 <1>  -0.1500 
 18 H       -0.1660    -1.3620     0.0060 H     1 <1>   0.1500 
 19 C        1.1200     0.3640     0.1240 C.ar  1 <1>  -0.1500 
 20 H        1.9850    -0.2620     0.3300 H     1 <1>   0.1500 
 21 C        1.2500     1.7730     0.0660 C.ar  1 <1>   0.0000 
 22 C        5.1160     2.4860     0.2410 C.3   1 <1>   0.2700 
 23 H        5.1770     3.2930     0.9790 H     1 <1>   0.0000 
 24 H        5.1870     2.9220    -0.7610 H     1 <1>   0.0000 
 25 N        6.2750     1.6060     0.4870 N.3   1 <1>  -0.9900 
 26 H        6.3280     0.9060    -0.2550 H     1 <1>   0.3600 
 27 H        7.1300     2.1590     0.4030 H     1 <1>   0.3600 
@<TRIPOS>BOND
  1   1   2  1   
  2   2   3  1   
  3   3   4  1   
  4   3   5  1   
  5   3  22  1   
  6   5   6  ar  
  7   5  21  ar  
  8   6   7  1   
  9   6   8  ar  
 10   8   9  1   
 11   8  10  ar  
 12  10  11  1   
 13  10  12  ar  
 14  12  13  ar  
 15  12  21  ar  
 16  13  14  1   
 17  13  15  ar  
 18  15  16  1   
 19  15  17  ar  
 20  17  18  1   
 21  17  19  ar  
 22  19  20  1   
 23  19  21  ar  
 24  22  23  1   
 25  22  24  1   
 26  22  25  1   
 27  25  26  1   
 28  25  27  1   
@<TRIPOS>SUBSTRUCTURE
  1 ****  21 GROUP 4 **** **** 0

# MOE 2022.02 (io_trps.svl 2020.11)

@<TRIPOS>MOLECULE
LCSOL171
20 20 1 0 0 
SMALL
USER_CHARGES


@<TRIPOS>ATOM
  1 H       -4.3840     3.3110     2.1200 H     1 <1>   0.1500 
  2 C       -4.0550     2.6250     1.3520 C.2   1 <1>  -0.0100 
  3 O       -2.8080     2.1140     1.5180 O.3   1 <1>  -0.2800 
  4 C       -2.5790     1.2800     0.4640 C.2   1 <1>  -0.0400 
  5 C       -1.2580     0.5950     0.4330 C.3   1 <1>   0.1800 
  6 H       -1.0430     0.2160     1.4400 H     1 <1>   0.0000 
  7 H       -1.3120    -0.2830    -0.2230 H     1 <1>   0.0000 
  8 C       -0.1200     1.5310    -0.0190 C.3   1 <1>   0.2700 
  9 H       -0.1450     2.4540     0.5740 H     1 <1>   0.0000 
 10 N       -0.2400     1.8950    -1.4400 N.3   1 <1>  -0.9900 
 11 H        0.5030     2.5500    -1.6830 H     1 <1>   0.3600 
 12 H       -1.1150     2.4060    -1.5740 H     1 <1>   0.3600 
 13 C        1.2370     0.8600     0.1920 C.3   1 <1>   0.0000 
 14 H        1.3810     0.6050     1.2480 H     1 <1>   0.0000 
 15 H        1.3240    -0.0630    -0.3920 H     1 <1>   0.0000 
 16 H        2.0560     1.5250    -0.1010 H     1 <1>   0.0000 
 17 C       -3.6760     1.2590    -0.3710 C.2   1 <1>  -0.1500 
 18 H       -3.7710     0.6840    -1.2810 H     1 <1>   0.1500 
 19 C       -4.6300     2.1310     0.2050 C.2   1 <1>  -0.1500 
 20 H       -5.6170     2.3700    -0.1670 H     1 <1>   0.1500 
@<TRIPOS>BOND
  1   1   2  1   
  2   2   3  1   
  3   2  19  2   
  4   3   4  1   
  5   4   5  1   
  6   4  17  2   
  7   5   6  1   
  8   5   7  1   
  9   5   8  1   
 10   8   9  1   
 11   8  10  1   
 12   8  13  1   
 13  10  11  1   
 14  10  12  1   
 15  13  14  1   
 16  13  15  1   
 17  13  16  1   
 18  17  18  1   
 19  17  19  1   
 20  19  20  1   
@<TRIPOS>SUBSTRUCTURE
  1 ****   4 GROUP 4 **** **** 0

# MOE 2022.02 (io_trps.svl 2020.11)

@<TRIPOS>MOLECULE
LCSOL172
19 19 1 0 0 
SMALL
USER_CHARGES


@<TRIPOS>ATOM
  1 H       -4.1030     0.5510    -0.6510 H     1 <1>   0.3600 
  2 N       -3.1570     0.9240    -0.5400 N.3   1 <1>  -0.9000 
  3 C       -2.3260    -0.1560     0.0130 C.3   1 <1>   0.2700 
  4 H       -2.6140    -0.3720     1.0500 H     1 <1>   0.0000 
  5 H       -2.5460    -1.0670    -0.5560 H     1 <1>   0.0000 
  6 C       -0.8290     0.0940    -0.0860 C.3   1 <1>   0.0610 
  7 H       -0.2780    -0.7280     0.3850 H     1 <1>   0.0000 
  8 H       -0.5020     0.1320    -1.1310 H     1 <1>   0.0000 
  9 C       -0.4390     1.3830     0.5930 C.2   1 <1>   0.4480 
 10 O        0.0750     1.3990     1.7110 O.2   1 <1>  -0.5700 
 11 C       -0.7640     2.6560    -0.1510 C.3   1 <1>   0.0610 
 12 H       -0.0340     3.4250     0.1260 H     1 <1>   0.0000 
 13 H       -0.6180     2.4750    -1.2230 H     1 <1>   0.0000 
 14 C       -2.1810     3.1460     0.1130 C.3   1 <1>   0.0000 
 15 H       -2.4920     3.7630    -0.7390 H     1 <1>   0.0000 
 16 H       -2.1670     3.8180     0.9810 H     1 <1>   0.0000 
 17 C       -3.2370     2.0700     0.3730 C.3   1 <1>   0.2700 
 18 H       -3.2120     1.7510     1.4230 H     1 <1>   0.0000 
 19 H       -4.2200     2.5410     0.2400 H     1 <1>   0.0000 
@<TRIPOS>BOND
  1   1   2  1   
  2   2   3  1   
  3   2  17  1   
  4   3   4  1   
  5   3   5  1   
  6   3   6  1   
  7   6   7  1   
  8   6   8  1   
  9   6   9  1   
 10   9  10  2   
 11   9  11  1   
 12  11  12  1   
 13  11  13  1   
 14  11  14  1   
 15  14  15  1   
 16  14  16  1   
 17  14  17  1   
 18  17  18  1   
 19  17  19  1   
@<TRIPOS>SUBSTRUCTURE
  1 ****   9 GROUP 4 **** **** 0

# MOE 2022.02 (io_trps.svl 2020.11)

@<TRIPOS>MOLECULE
LCSOL173
23 24 1 0 0 
SMALL
USER_CHARGES


@<TRIPOS>ATOM
  1 H        0.3170     1.4660     0.1620 H     1 <1>   0.1500 
  2 C       -0.6210     0.9190     0.1110 C.2   1 <1>  -0.1500 
  3 C       -0.5760    -0.5400    -0.0150 C.2   1 <1>   0.0140 
  4 C        0.6860    -1.3290    -0.0830 C.2   1 <1>   0.7060 
  5 O        0.7240    -2.5480    -0.1720 O.2   1 <1>  -0.5700 
  6 O        1.7660    -0.5090    -0.0370 O.3   1 <1>  -0.4300 
  7 C        3.0180    -1.1940    -0.1090 C.3   1 <1>   0.2800 
  8 H        3.1000    -1.7430    -1.0530 H     1 <1>   0.0000 
  9 H        3.1350    -1.8690     0.7450 H     1 <1>   0.0000 
 10 H        3.8160    -0.4470    -0.0730 H     1 <1>   0.0000 
 11 C       -1.7430    -1.2130    -0.0760 C.2   1 <1>  -0.1810 
 12 H       -1.8100    -2.2910    -0.1700 H     1 <1>   0.1500 
 13 N       -2.9400    -0.5090    -0.0200 N.pl3 1 <1>   0.3340 
 14 C       -4.2290    -0.9740    -0.0650 C.2   1 <1>  -0.3020 
 15 H       -4.4660    -2.0230    -0.1570 H     1 <1>   0.1500 
 16 C       -5.0000     0.1510     0.0270 C.2   1 <1>   0.3100 
 17 N       -6.3250     0.2190     0.0240 N.pl3 1 <1>  -0.8830 
 18 H       -6.7770     1.1220     0.1000 H     1 <1>   0.4000 
 19 H       -6.9350    -0.5830    -0.0500 H     1 <1>   0.4000 
 20 N       -4.2690     1.2870     0.1290 N.2   1 <1>  -0.5650 
 21 C       -3.0180     0.8760     0.0990 C.2   1 <1>   0.1420 
 22 C       -1.7890     1.5900     0.1650 C.2   1 <1>  -0.1050 
 23 H       -1.8230     2.6700     0.2590 H     1 <1>   0.1500 
@<TRIPOS>BOND
  1   1   2  1   
  2   2   3  1   
  3   2  22  2   
  4   3   4  1   
  5   3  11  2   
  6   4   5  2   
  7   4   6  1   
  8   6   7  1   
  9   7   8  1   
 10   7   9  1   
 11   7  10  1   
 12  11  12  1   
 13  11  13  1   
 14  13  14  1   
 15  13  21  1   
 16  14  15  1   
 17  14  16  2   
 18  16  17  1   
 19  16  20  1   
 20  17  18  1   
 21  17  19  1   
 22  20  21  2   
 23  21  22  1   
 24  22  23  1   
@<TRIPOS>SUBSTRUCTURE
  1 ****  11 GROUP 4 **** **** 0

# MOE 2022.02 (io_trps.svl 2020.11)

@<TRIPOS>MOLECULE
LCSOL174
15 16 1 0 0 
SMALL
USER_CHARGES


@<TRIPOS>ATOM
  1 H        4.0580     4.3320    -0.0050 H     1 <1>   0.1500 
  2 C        3.1010     3.8300    -0.0050 C.2   1 <1>   0.1390 
  3 N        3.0720     2.4970    -0.0070 N.2   1 <1>  -0.4100 
  4 O        1.7270     2.1620    -0.0060 O.3   1 <1>  -0.0190 
  5 C        0.9620     3.2970    -0.0030 C.2   1 <1>   0.1400 
  6 C       -0.4720     3.2260    -0.0010 C.2   1 <1>   0.0400 
  7 S       -1.2990     1.7220     0.0020 S.3   1 <1>  -0.0800 
  8 C       -2.8300     2.4810     0.0040 C.2   1 <1>  -0.1100 
  9 H       -3.7320     1.8840     0.0060 H     1 <1>   0.1500 
 10 C       -2.7250     3.8530     0.0020 C.2   1 <1>  -0.1500 
 11 H       -3.5810     4.5160     0.0020 H     1 <1>   0.1500 
 12 C       -1.3650     4.2820    -0.0010 C.2   1 <1>  -0.1500 
 13 H       -1.0670     5.3230    -0.0040 H     1 <1>   0.1500 
 14 C        1.8100     4.3850    -0.0020 C.2   1 <1>  -0.1500 
 15 H        1.5370     5.4280     0.0000 H     1 <1>   0.1500 
@<TRIPOS>BOND
  1   1   2  1   
  2   2   3  2   
  3   2  14  1   
  4   3   4  1   
  5   4   5  1   
  6   5   6  1   
  7   5  14  2   
  8   6   7  1   
  9   6  12  2   
 10   7   8  1   
 11   8   9  1   
 12   8  10  2   
 13  10  11  1   
 14  10  12  1   
 15  12  13  1   
 16  14  15  1   
@<TRIPOS>SUBSTRUCTURE
  1 ****   6 GROUP 4 **** **** 0

# MOE 2022.02 (io_trps.svl 2020.11)

@<TRIPOS>MOLECULE
LCSOL175
18 18 1 0 0 
SMALL
USER_CHARGES


@<TRIPOS>ATOM
  1 H       -2.7950     3.4750     0.3440 H     1 <1>   0.1500 
  2 C       -1.9240     2.8400     0.2500 C.2   1 <1>  -0.1500 
  3 C       -1.9060     1.4300     0.1650 C.2   1 <1>  -0.1500 
  4 H       -2.7600     0.7660     0.1820 H     1 <1>   0.1500 
  5 C       -0.5890     1.0450     0.0540 C.2   1 <1>  -0.3020 
  6 H       -0.1460     0.0610    -0.0360 H     1 <1>   0.1500 
  7 N        0.1930     2.1760     0.0700 N.pl3 1 <1>   0.0480 
  8 C        1.6450     2.1380    -0.0260 C.3   1 <1>   0.2560 
  9 H        1.8780     1.6270    -0.9680 H     1 <1>   0.0000 
 10 H        1.9880     1.5030     0.8010 H     1 <1>   0.0000 
 11 C        2.3600     3.4930     0.0260 C.3   1 <1>   0.2700 
 12 H        2.1110     4.0210     0.9530 H     1 <1>   0.0000 
 13 H        2.0290     4.1210    -0.8090 H     1 <1>   0.0000 
 14 N        3.8150     3.3440    -0.0550 N.3   1 <1>  -0.9900 
 15 H        4.1600     2.8580     0.7730 H     1 <1>   0.3600 
 16 H        4.2480     4.2680    -0.0370 H     1 <1>   0.3600 
 17 C       -0.6170     3.2740     0.1870 C.2   1 <1>  -0.3020 
 18 H       -0.2220     4.2810     0.2170 H     1 <1>   0.1500 
@<TRIPOS>BOND
  1   1   2  1   
  2   2   3  1   
  3   2  17  2   
  4   3   4  1   
  5   3   5  2   
  6   5   6  1   
  7   5   7  1   
  8   7   8  1   
  9   7  17  1   
 10   8   9  1   
 11   8  10  1   
 12   8  11  1   
 13  11  12  1   
 14  11  13  1   
 15  11  14  1   
 16  14  15  1   
 17  14  16  1   
 18  17  18  1   
@<TRIPOS>SUBSTRUCTURE
  1 ****   7 GROUP 4 **** **** 0

# MOE 2022.02 (io_trps.svl 2020.11)

@<TRIPOS>MOLECULE
LCSOL176
19 20 1 0 0 
SMALL
USER_CHARGES


@<TRIPOS>ATOM
  1 H       -5.2620    -4.0780    -0.0090 H     1 <1>   0.1500 
  2 C       -4.4130    -3.4070    -0.0060 C.2   1 <1>  -0.0730 
  3 O       -3.2370    -4.1180    -0.0060 O.3   1 <1>  -0.1590 
  4 C       -2.0630    -3.4040    -0.0030 C.ar  1 <1>   0.0820 
  5 C       -0.8740    -4.1260    -0.0040 C.ar  1 <1>  -0.1500 
  6 H       -0.8930    -5.2130    -0.0070 H     1 <1>   0.1500 
  7 C        0.3500    -3.4490    -0.0020 C.ar  1 <1>  -0.1500 
  8 H        1.2710    -4.0260    -0.0030 H     1 <1>   0.1500 
  9 C        0.3980    -2.0500     0.0010 C.ar  1 <1>   0.1000 
 10 N        1.6110    -1.3890     0.0030 N.pl3 1 <1>  -0.9000 
 11 H        2.4830    -1.9010     0.0030 H     1 <1>   0.4000 
 12 H        1.6470    -0.3790     0.0050 H     1 <1>   0.4000 
 13 C       -0.8000    -1.3330     0.0020 C.ar  1 <1>  -0.1500 
 14 H       -0.7900    -0.2460     0.0040 H     1 <1>   0.1500 
 15 C       -2.0240    -2.0110    -0.0010 C.ar  1 <1>   0.0860 
 16 C       -3.2950    -1.2660     0.0000 C.2   1 <1>   0.4690 
 17 O       -3.3450    -0.0430     0.0030 O.2   1 <1>  -0.5700 
 18 C       -4.5260    -2.0760    -0.0040 C.2   1 <1>  -0.1360 
 19 H       -5.4750    -1.5580    -0.0040 H     1 <1>   0.1500 
@<TRIPOS>BOND
  1   1   2  1   
  2   2   3  1   
  3   2  18  2   
  4   3   4  1   
  5   4   5  ar  
  6   4  15  ar  
  7   5   6  1   
  8   5   7  ar  
  9   7   8  1   
 10   7   9  ar  
 11   9  10  1   
 12   9  13  ar  
 13  10  11  1   
 14  10  12  1   
 15  13  14  1   
 16  13  15  ar  
 17  15  16  1   
 18  16  17  2   
 19  16  18  1   
 20  18  19  1   
@<TRIPOS>SUBSTRUCTURE
  1 ****  15 GROUP 4 **** **** 0

# MOE 2022.02 (io_trps.svl 2020.11)

@<TRIPOS>MOLECULE
LCSOL177
27 28 1 0 0 
SMALL
USER_CHARGES


@<TRIPOS>ATOM
  1 H        0.2260     0.3920    -0.3270 H     1 <1>   0.1500 
  2 C        0.0900    -0.6700    -0.1590 C.2   1 <1>  -0.2880 
  3 C       -1.1350    -1.2260    -0.0450 C.2   1 <1>  -0.1670 
  4 C       -2.4140    -0.4710    -0.1060 C.ar  1 <1>   0.3380 
  5 N       -3.5380    -1.2160     0.0360 N.ar  1 <1>  -0.6200 
  6 C       -4.7580    -0.6040     0.0000 C.ar  1 <1>   0.1660 
  7 C       -6.0190    -1.4430     0.1470 C.3   1 <1>   1.1640 
  8 F       -5.7980    -2.7410     0.4990 F     1 <1>  -0.3400 
  9 F       -6.7500    -1.4890    -1.0060 F     1 <1>  -0.3400 
 10 F       -6.8700    -0.9450     1.0940 F     1 <1>  -0.3400 
 11 C       -4.8840     0.7700    -0.1880 C.ar  1 <1>  -0.1500 
 12 H       -5.8620     1.2410    -0.2190 H     1 <1>   0.1500 
 13 C       -3.7330     1.5310    -0.3330 C.ar  1 <1>  -0.1500 
 14 H       -3.8000     2.6060    -0.4790 H     1 <1>   0.1500 
 15 C       -2.4870     0.9070    -0.2910 C.ar  1 <1>  -0.1500 
 16 H       -1.5990     1.5180    -0.4030 H     1 <1>   0.1500 
 17 C       -1.2410    -2.7260     0.1590 C.3   1 <1>   0.1380 
 18 H       -2.0000    -3.1560    -0.5060 H     1 <1>   0.0000 
 19 H       -1.5580    -2.9180     1.1920 H     1 <1>   0.0000 
 20 C        0.0760    -3.4680    -0.1130 C.3   1 <1>   0.2700 
 21 H        0.2390    -3.5690    -1.1940 H     1 <1>   0.0000 
 22 H        0.0030    -4.4830     0.2910 H     1 <1>   0.0000 
 23 N        1.2130    -2.7860     0.5030 N.3   1 <1>  -0.9000 
 24 H        2.0640    -3.3200     0.3370 H     1 <1>   0.3600 
 25 C        1.3720    -1.4460    -0.0560 C.3   1 <1>   0.4080 
 26 H        2.0670    -0.8920     0.5840 H     1 <1>   0.0000 
 27 H        1.8290    -1.5050    -1.0510 H     1 <1>   0.0000 
@<TRIPOS>BOND
  1   1   2  1   
  2   2   3  2   
  3   2  25  1   
  4   3   4  1   
  5   3  17  1   
  6   4   5  ar  
  7   4  15  ar  
  8   5   6  ar  
  9   6   7  1   
 10   6  11  ar  
 11   7   8  1   
 12   7   9  1   
 13   7  10  1   
 14  11  12  1   
 15  11  13  ar  
 16  13  14  1   
 17  13  15  ar  
 18  15  16  1   
 19  17  18  1   
 20  17  19  1   
 21  17  20  1   
 22  20  21  1   
 23  20  22  1   
 24  20  23  1   
 25  23  24  1   
 26  23  25  1   
 27  25  26  1   
 28  25  27  1   
@<TRIPOS>SUBSTRUCTURE
  1 ****   5 GROUP 4 **** **** 0

# MOE 2022.02 (io_trps.svl 2020.11)

