@<TRIPOS>MOLECULE
SEL001
19 20 1 0 0 
SMALL
USER_CHARGES


@<TRIPOS>ATOM
  1 H        7.8210     0.0680    -0.0070 H     1 <1>   0.4000 
  2 N        7.0410    -0.5910     0.0000 N.2   1 <1>  -0.8500 
  3 C        5.9220     0.0610     0.0040 C.2   1 <1>   0.4860 
  4 C        4.6500    -0.7210     0.0130 C.2   1 <1>  -0.1360 
  5 H        4.7250    -1.7990     0.0190 H     1 <1>   0.1500 
  6 C        3.4910    -0.0330     0.0140 C.2   1 <1>   0.0000 
  7 C        2.2030    -0.7260     0.0230 C.2   1 <1>  -0.1500 
  8 H        2.1820    -1.8110     0.0320 H     1 <1>   0.1500 
  9 C        1.0590    -0.0150     0.0220 C.2   1 <1>  -0.1500 
 10 H        0.0970    -0.5180     0.0290 H     1 <1>   0.1500 
 11 C        1.0580     1.4410     0.0100 C.2   1 <1>  -0.1500 
 12 H        0.0950     1.9420     0.0080 H     1 <1>   0.1500 
 13 C        2.2010     2.1510     0.0030 C.2   1 <1>  -0.1500 
 14 H        2.1830     3.2350    -0.0050 H     1 <1>   0.1500 
 15 C        3.4810     1.4530     0.0060 C.2   1 <1>   0.0000 
 16 C        4.6600     2.1030    -0.0010 C.2   1 <1>  -0.0500 
 17 H        4.7430     3.1840    -0.0070 H     1 <1>   0.1500 
 18 N        5.8620     1.4330    -0.0020 N.pl3 1 <1>  -0.5500 
 19 H        6.7080     1.9830    -0.0060 H     1 <1>   0.4000 
@<TRIPOS>BOND
  1   1   2  1   
  2   2   3  2   
  3   3   4  1   
  4   3  18  1   
  5   4   5  1   
  6   4   6  2   
  7   6   7  1   
  8   6  15  1   
  9   7   8  1   
 10   7   9  2   
 11   9  10  1   
 12   9  11  1   
 13  11  12  1   
 14  11  13  2   
 15  13  14  1   
 16  13  15  1   
 17  15  16  2   
 18  16  17  1   
 19  16  18  1   
 20  18  19  1   
@<TRIPOS>SUBSTRUCTURE
  1 ****   6 GROUP 4 **** **** 0

# MOE 2022.02 (io_trps.svl 2020.11)

@<TRIPOS>MOLECULE
SEL002
34 35 1 0 0 
SMALL
USER_CHARGES


@<TRIPOS>ATOM
  1 H       10.6510    -4.9820     0.7280 H     1 <1>   0.4000 
  2 O        9.9690    -4.3340     0.4810 O.3   1 <1>  -0.6800 
  3 C        8.7460    -5.0470     0.3480 C.3   1 <1>   0.2800 
  4 H        8.5370    -5.5590     1.2940 H     1 <1>   0.0000 
  5 H        8.8760    -5.8000    -0.4360 H     1 <1>   0.0000 
  6 C        7.6210    -4.0770    -0.0170 C.3   1 <1>   0.0000 
  7 H        7.9160    -3.5340    -0.9260 H     1 <1>   0.0000 
  8 C        6.3200    -4.8350    -0.2940 C.3   1 <1>   0.0000 
  9 H        6.0690    -5.4760     0.5620 H     1 <1>   0.0000 
 10 H        6.4500    -5.4970    -1.1580 H     1 <1>   0.0000 
 11 C        5.1580    -3.8760    -0.5650 C.3   1 <1>   0.2700 
 12 H        5.3380    -3.3350    -1.5030 H     1 <1>   0.0000 
 13 H        4.2580    -4.4850    -0.7100 H     1 <1>   0.0000 
 14 N        4.9740    -2.9380     0.5540 N.3   1 <1>  -0.8100 
 15 C        3.8260    -2.0420     0.3200 C.3   1 <1>   0.4140 
 16 H        3.7940    -1.2670     1.0980 H     1 <1>   0.0000 
 17 H        3.9420    -1.5130    -0.6350 H     1 <1>   0.0000 
 18 C        2.4870    -2.7470     0.3760 C.ar  1 <1>  -0.1440 
 19 C        2.1060    -3.4640     1.5200 C.ar  1 <1>  -0.1500 
 20 H        2.7850    -3.5310     2.3670 H     1 <1>   0.1500 
 21 C        0.8650    -4.1020     1.5790 C.ar  1 <1>  -0.1500 
 22 H        0.5840    -4.6570     2.4700 H     1 <1>   0.1500 
 23 C       -0.0090    -4.0270     0.4970 C.ar  1 <1>  -0.1500 
 24 H       -0.9740    -4.5240     0.5420 H     1 <1>   0.1500 
 25 C        0.3560    -3.3140    -0.6440 C.ar  1 <1>  -0.1500 
 26 H       -0.3270    -3.2550    -1.4880 H     1 <1>   0.1500 
 27 C        1.5960    -2.6750    -0.7050 C.ar  1 <1>  -0.1500 
 28 H        1.8640    -2.1230    -1.6030 H     1 <1>   0.1500 
 29 C        6.1930    -2.1440     0.7690 C.3   1 <1>   0.2700 
 30 H        6.4170    -1.5250    -0.1100 H     1 <1>   0.0000 
 31 H        6.0480    -1.4630     1.6170 H     1 <1>   0.0000 
 32 C        7.3910    -3.0390     1.0880 C.3   1 <1>   0.0000 
 33 H        7.2210    -3.5450     2.0480 H     1 <1>   0.0000 
 34 H        8.2820    -2.4130     1.2130 H     1 <1>   0.0000 
@<TRIPOS>BOND
  1   1   2  1   
  2   2   3  1   
  3   3   4  1   
  4   3   5  1   
  5   3   6  1   
  6   6   7  1   
  7   6   8  1   
  8   6  32  1   
  9   8   9  1   
 10   8  10  1   
 11   8  11  1   
 12  11  12  1   
 13  11  13  1   
 14  11  14  1   
 15  14  15  1   
 16  14  29  1   
 17  15  16  1   
 18  15  17  1   
 19  15  18  1   
 20  18  19  ar  
 21  18  27  ar  
 22  19  20  1   
 23  19  21  ar  
 24  21  22  1   
 25  21  23  ar  
 26  23  24  1   
 27  23  25  ar  
 28  25  26  1   
 29  25  27  ar  
 30  27  28  1   
 31  29  30  1   
 32  29  31  1   
 33  29  32  1   
 34  32  33  1   
 35  32  34  1   
@<TRIPOS>SUBSTRUCTURE
  1 ****  14 GROUP 4 **** **** 0

# MOE 2022.02 (io_trps.svl 2020.11)

@<TRIPOS>MOLECULE
SEL003
33 35 1 0 0 
SMALL
USER_CHARGES


@<TRIPOS>ATOM
  1 H        4.1890     4.1840    -1.4310 H     1 <1>   0.1500 
  2 C        3.1860     4.2680    -1.0210 C.ar  1 <1>  -0.1500 
  3 C        2.4110     3.1260    -0.8330 C.ar  1 <1>  -0.1500 
  4 H        2.8120     2.1500    -1.0960 H     1 <1>   0.1500 
  5 C        1.1220     3.2320    -0.3070 C.ar  1 <1>  -0.1500 
  6 H        0.5340     2.3280    -0.1660 H     1 <1>   0.1500 
  7 C        0.5950     4.4850     0.0360 C.ar  1 <1>  -0.1440 
  8 C       -0.7970     4.6070     0.6180 C.3   1 <1>   0.4140 
  9 H       -0.6860     5.0540     1.6150 H     1 <1>   0.0000 
 10 H       -1.2160     3.6080     0.7860 H     1 <1>   0.0000 
 11 N       -1.6780     5.4480    -0.1910 N.3   1 <1>  -0.8100 
 12 C       -2.9800     5.7610     0.4050 C.3   1 <1>   0.2700 
 13 H       -2.8790     6.3480     1.3240 H     1 <1>   0.0000 
 14 C       -3.8330     4.5140     0.6670 C.3   1 <1>   0.0610 
 15 H       -3.4100     3.9130     1.4790 H     1 <1>   0.0000 
 16 H       -4.8470     4.8120     0.9580 H     1 <1>   0.0000 
 17 C       -3.9270     3.6400    -0.5660 C.2   1 <1>   0.4480 
 18 O       -4.8920     2.8910    -0.7350 O.2   1 <1>  -0.5700 
 19 C       -2.7480     3.6140    -1.5150 C.3   1 <1>   0.0610 
 20 H       -2.0790     2.8050    -1.2040 H     1 <1>   0.0000 
 21 H       -3.1200     3.3790    -2.5190 H     1 <1>   0.0000 
 22 C       -2.0170     4.9610    -1.5330 C.3   1 <1>   0.2700 
 23 H       -1.1440     4.9040    -2.1920 H     1 <1>   0.0000 
 24 C       -2.9500     6.0880    -1.9990 C.3   1 <1>   0.0000 
 25 H       -2.3740     6.8900    -2.4780 H     1 <1>   0.0000 
 26 H       -3.7060     5.7490    -2.7160 H     1 <1>   0.0000 
 27 C       -3.5870     6.6220    -0.7110 C.3   1 <1>   0.0000 
 28 H       -3.3090     7.6750    -0.5790 H     1 <1>   0.0000 
 29 H       -4.6800     6.5690    -0.7460 H     1 <1>   0.0000 
 30 C        1.3870     5.6280    -0.1570 C.ar  1 <1>  -0.1500 
 31 H        0.9930     6.6100     0.0980 H     1 <1>   0.1500 
 32 C        2.6740     5.5200    -0.6840 C.ar  1 <1>  -0.1500 
 33 H        3.2760     6.4120    -0.8320 H     1 <1>   0.1500 
@<TRIPOS>BOND
  1   1   2  1   
  2   2   3  ar  
  3   2  32  ar  
  4   3   4  1   
  5   3   5  ar  
  6   5   6  1   
  7   5   7  ar  
  8   7   8  1   
  9   7  30  ar  
 10   8   9  1   
 11   8  10  1   
 12   8  11  1   
 13  11  12  1   
 14  11  22  1   
 15  12  13  1   
 16  12  14  1   
 17  12  27  1   
 18  14  15  1   
 19  14  16  1   
 20  14  17  1   
 21  17  18  2   
 22  17  19  1   
 23  19  20  1   
 24  19  21  1   
 25  19  22  1   
 26  22  23  1   
 27  22  24  1   
 28  24  25  1   
 29  24  26  1   
 30  24  27  1   
 31  27  28  1   
 32  27  29  1   
 33  30  31  1   
 34  30  32  ar  
 35  32  33  1   
@<TRIPOS>SUBSTRUCTURE
  1 ****  11 GROUP 4 **** **** 0

# MOE 2022.02 (io_trps.svl 2020.11)

@<TRIPOS>MOLECULE
SEL004
16 16 1 0 0 
SMALL
USER_CHARGES


@<TRIPOS>ATOM
  1 H        4.9920     1.9000    -1.6620 H     1 <1>   0.4000 
  2 O        4.9330     2.7250    -1.1440 O.3   1 <1>  -0.6800 
  3 C        4.4410     2.3320     0.1320 C.3   1 <1>   0.4600 
  4 H        5.1820     1.6860     0.6130 H     1 <1>   0.0000 
  5 H        4.3050     3.2240     0.7510 H     1 <1>   0.0000 
  6 C        3.1620     1.6060    -0.0930 C.2   1 <1>   0.0070 
  7 N        3.0180     0.2940    -0.1280 N.2   1 <1>  -0.5650 
  8 C        1.6880     0.0700    -0.3700 C.2   1 <1>   0.0770 
  9 H        1.2900    -0.9340    -0.4390 H     1 <1>   0.1500 
 10 C        1.0110     1.2580    -0.5000 C.2   1 <1>  -0.3020 
 11 H       -0.0290     1.4800    -0.6960 H     1 <1>   0.1500 
 12 N        1.9600     2.2280    -0.3380 N.pl3 1 <1>   0.0480 
 13 C        1.7330     3.6500    -0.4190 C.3   1 <1>   0.2560 
 14 H        1.9270     4.0870     0.5630 H     1 <1>   0.0000 
 15 H        2.4050     4.0710    -1.1710 H     1 <1>   0.0000 
 16 H        0.6960     3.8370    -0.7090 H     1 <1>   0.0000 
@<TRIPOS>BOND
  1   1   2  1   
  2   2   3  1   
  3   3   4  1   
  4   3   5  1   
  5   3   6  1   
  6   6   7  2   
  7   6  12  1   
  8   7   8  1   
  9   8   9  1   
 10   8  10  2   
 11  10  11  1   
 12  10  12  1   
 13  12  13  1   
 14  13  14  1   
 15  13  15  1   
 16  13  16  1   
@<TRIPOS>SUBSTRUCTURE
  1 ****   6 GROUP 4 **** **** 0

# MOE 2022.02 (io_trps.svl 2020.11)

@<TRIPOS>MOLECULE
SEL005
27 28 1 0 0 
SMALL
USER_CHARGES


@<TRIPOS>ATOM
  1 H       -0.4820     6.5590    -0.1780 H     1 <1>   0.4000 
  2 N        0.1230     5.7400    -0.1410 N.2   1 <1>  -0.8500 
  3 C       -0.5990     4.6640    -0.0470 C.2   1 <1>   0.4860 
  4 C        0.0760     3.2980     0.0250 C.2   1 <1>   0.0910 
  5 O        1.4500     3.2770    -0.0170 O.3   1 <1>  -0.3570 
  6 C        2.1030     2.0140     0.0720 C.3   1 <1>   0.4240 
  7 H        1.7980     1.3880    -0.7750 H     1 <1>   0.0000 
  8 H        1.8350     1.5280     1.0190 H     1 <1>   0.0000 
  9 C        3.6100     2.1590     0.0340 C.ar  1 <1>  -0.1440 
 10 C        4.2450     3.4090     0.0250 C.ar  1 <1>  -0.1500 
 11 H        3.6580     4.3270     0.0370 H     1 <1>   0.1500 
 12 C        5.6390     3.5010    -0.0010 C.ar  1 <1>  -0.1500 
 13 H        6.1150     4.4780    -0.0100 H     1 <1>   0.1500 
 14 C        6.4160     2.3440    -0.0160 C.ar  1 <1>  -0.1500 
 15 H        7.5000     2.4180    -0.0360 H     1 <1>   0.1500 
 16 C        5.8000     1.0950    -0.0050 C.ar  1 <1>  -0.1500 
 17 H        6.4040     0.1920    -0.0150 H     1 <1>   0.1500 
 18 C        4.4060     1.0020     0.0210 C.ar  1 <1>  -0.1500 
 19 H        3.9430     0.0180     0.0320 H     1 <1>   0.1500 
 20 C       -0.7640     2.2420     0.1250 C.2   1 <1>  -0.1500 
 21 H       -0.3980     1.2230     0.1830 H     1 <1>   0.1500 
 22 C       -2.2120     2.3860     0.1610 C.2   1 <1>  -0.1500 
 23 H       -2.8250     1.4950     0.2420 H     1 <1>   0.1500 
 24 C       -2.7550     3.6090     0.0940 C.2   1 <1>  -0.0500 
 25 H       -3.8270     3.7800     0.1160 H     1 <1>   0.1500 
 26 N       -1.9760     4.7330    -0.0090 N.pl3 1 <1>  -0.5500 
 27 H       -2.4400     5.6280    -0.0560 H     1 <1>   0.4000 
@<TRIPOS>BOND
  1   1   2  1   
  2   2   3  2   
  3   3   4  1   
  4   3  26  1   
  5   4   5  1   
  6   4  20  2   
  7   5   6  1   
  8   6   7  1   
  9   6   8  1   
 10   6   9  1   
 11   9  10  ar  
 12   9  18  ar  
 13  10  11  1   
 14  10  12  ar  
 15  12  13  1   
 16  12  14  ar  
 17  14  15  1   
 18  14  16  ar  
 19  16  17  1   
 20  16  18  ar  
 21  18  19  1   
 22  20  21  1   
 23  20  22  1   
 24  22  23  1   
 25  22  24  2   
 26  24  25  1   
 27  24  26  1   
 28  26  27  1   
@<TRIPOS>SUBSTRUCTURE
  1 ****   5 GROUP 4 **** **** 0

# MOE 2022.02 (io_trps.svl 2020.11)

@<TRIPOS>MOLECULE
SEL006
27 26 1 0 0 
SMALL
USER_CHARGES


@<TRIPOS>ATOM
  1 H       11.7660    -3.2840     0.2050 H     1 <1>   0.4000 
  2 O       10.9970    -2.6890     0.1680 O.3   1 <1>  -0.6800 
  3 C        9.8350    -3.5070     0.1560 C.3   1 <1>   0.2800 
  4 H        9.8310    -4.1180     1.0640 H     1 <1>   0.0000 
  5 H        9.8830    -4.1660    -0.7170 H     1 <1>   0.0000 
  6 C        8.6030    -2.6150     0.0960 C.3   1 <1>   0.0000 
  7 H        8.6080    -1.9310     0.9540 H     1 <1>   0.0000 
  8 H        8.6600    -1.9780    -0.7950 H     1 <1>   0.0000 
  9 C        7.3130    -3.4330     0.0800 C.3   1 <1>   0.0000 
 10 H        7.3160    -4.1070    -0.7860 H     1 <1>   0.0000 
 11 H        7.2660    -4.0610     0.9780 H     1 <1>   0.0000 
 12 C        6.0800    -2.5300     0.0210 C.3   1 <1>   0.0000 
 13 H        6.1240    -1.9020    -0.8770 H     1 <1>   0.0000 
 14 H        6.0800    -1.8490     0.8820 H     1 <1>   0.0000 
 15 C        4.7900    -3.3480     0.0130 C.3   1 <1>   0.0610 
 16 H        4.7650    -3.9960    -0.8700 H     1 <1>   0.0000 
 17 H        4.7440    -3.9700     0.9150 H     1 <1>   0.0000 
 18 C        3.5610    -2.4680    -0.0130 C.2   1 <1>   0.6590 
 19 O        3.5620    -1.2480    -0.0900 O.2   1 <1>  -0.5700 
 20 O        2.4450    -3.2490     0.0580 O.3   1 <1>  -0.4300 
 21 C        1.2130    -2.5170     0.0460 C.3   1 <1>   0.2800 
 22 H        1.1300    -1.9500    -0.8880 H     1 <1>   0.0000 
 23 H        1.1820    -1.8320     0.8990 H     1 <1>   0.0000 
 24 C        0.0720    -3.5110     0.1450 C.3   1 <1>   0.0000 
 25 H       -0.8930    -2.9970     0.1400 H     1 <1>   0.0000 
 26 H        0.1010    -4.2160    -0.6910 H     1 <1>   0.0000 
 27 H        0.1540    -4.1010     1.0630 H     1 <1>   0.0000 
@<TRIPOS>BOND
  1   1   2  1   
  2   2   3  1   
  3   3   4  1   
  4   3   5  1   
  5   3   6  1   
  6   6   7  1   
  7   6   8  1   
  8   6   9  1   
  9   9  10  1   
 10   9  11  1   
 11   9  12  1   
 12  12  13  1   
 13  12  14  1   
 14  12  15  1   
 15  15  16  1   
 16  15  17  1   
 17  15  18  1   
 18  18  19  2   
 19  18  20  1   
 20  20  21  1   
 21  21  22  1   
 22  21  23  1   
 23  21  24  1   
 24  24  25  1   
 25  24  26  1   
 26  24  27  1   
@<TRIPOS>SUBSTRUCTURE
  1 ****  15 GROUP 4 **** **** 0

# MOE 2022.02 (io_trps.svl 2020.11)

@<TRIPOS>MOLECULE
SEL007
21 21 1 0 0 
SMALL
USER_CHARGES


@<TRIPOS>ATOM
  1 H        9.1100     0.9330    -0.0240 H     1 <1>   0.5000 
  2 O        8.1620     0.6840     0.0030 O.3   1 <1>  -0.6500 
  3 C        7.5060     1.8610    -0.0270 C.2   1 <1>   0.6590 
  4 O        8.1190     2.9130    -0.0780 O.2   1 <1>  -0.5700 
  5 C        6.0160     1.6690     0.0100 C.3   1 <1>   0.0610 
  6 H        5.7310     1.0520    -0.8490 H     1 <1>   0.0000 
  7 H        5.7660     1.1380     0.9360 H     1 <1>   0.0000 
  8 C        5.2920     3.0140    -0.0410 C.3   1 <1>   0.1440 
  9 H        5.6220     3.6250     0.8090 H     1 <1>   0.0000 
 10 H        5.6000     3.5440    -0.9530 H     1 <1>   0.0000 
 11 C        3.7780     2.9740    -0.0200 C.ar  1 <1>  -0.1440 
 12 C        3.0890     4.1990    -0.0990 C.ar  1 <1>  -0.1500 
 13 H        3.6430     5.1330    -0.1760 H     1 <1>   0.1500 
 14 C        1.6940     4.2390    -0.0820 C.ar  1 <1>  -0.1500 
 15 H        1.1650     5.1850    -0.1440 H     1 <1>   0.1500 
 16 C        0.9780     3.0540     0.0160 C.ar  1 <1>   0.1900 
 17 F       -0.3610     3.0900     0.0330 F     1 <1>  -0.1900 
 18 C        1.6330     1.8330     0.0970 C.ar  1 <1>  -0.1500 
 19 H        1.0530     0.9180     0.1730 H     1 <1>   0.1500 
 20 C        3.0300     1.7910     0.0790 C.ar  1 <1>  -0.1500 
 21 H        3.5120     0.8190     0.1450 H     1 <1>   0.1500 
@<TRIPOS>BOND
  1   1   2  1   
  2   2   3  1   
  3   3   4  2   
  4   3   5  1   
  5   5   6  1   
  6   5   7  1   
  7   5   8  1   
  8   8   9  1   
  9   8  10  1   
 10   8  11  1   
 11  11  12  ar  
 12  11  20  ar  
 13  12  13  1   
 14  12  14  ar  
 15  14  15  1   
 16  14  16  ar  
 17  16  17  1   
 18  16  18  ar  
 19  18  19  1   
 20  18  20  ar  
 21  20  21  1   
@<TRIPOS>SUBSTRUCTURE
  1 ****  11 GROUP 4 **** **** 0

# MOE 2022.02 (io_trps.svl 2020.11)

@<TRIPOS>MOLECULE
SEL008
15 15 1 0 0 
SMALL
USER_CHARGES


@<TRIPOS>ATOM
  1 H        1.4670    -2.7490    -2.0680 H     1 <1>   0.5000 
  2 O        2.0210    -2.4790    -1.3070 O.3   1 <1>  -0.6500 
  3 C        2.0790    -1.1340    -1.4010 C.2   1 <1>   0.7200 
  4 O        1.5290    -0.5340    -2.3110 O.2   1 <1>  -0.5700 
  5 C        2.8630    -0.4770    -0.3270 C.3   1 <1>   0.0000 
  6 C        2.0570     0.3070     0.6400 C.2   1 <1>   0.7200 
  7 O        1.3130    -0.1880     1.4710 O.2   1 <1>  -0.5700 
  8 O        2.2140     1.6440     0.5400 O.3   1 <1>  -0.6500 
  9 H        1.6130     2.0070     1.2230 H     1 <1>   0.5000 
 10 C        4.2680     0.0070    -0.6880 C.3   1 <1>  -0.2000 
 11 H        4.6230    -0.1640    -1.6980 H     1 <1>   0.1000 
 12 H        4.6230     0.9360    -0.2550 H     1 <1>   0.1000 
 13 C        4.1110    -1.1760     0.2160 C.3   1 <1>  -0.2000 
 14 H        4.3690    -2.1540    -0.1750 H     1 <1>   0.1000 
 15 H        4.3490    -1.0530     1.2670 H     1 <1>   0.1000 
@<TRIPOS>BOND
  1   1   2  1   
  2   2   3  1   
  3   3   4  2   
  4   3   5  1   
  5   5   6  1   
  6   5  10  1   
  7   5  13  1   
  8   6   7  2   
  9   6   8  1   
 10   8   9  1   
 11  10  11  1   
 12  10  12  1   
 13  10  13  1   
 14  13  14  1   
 15  13  15  1   
@<TRIPOS>SUBSTRUCTURE
  1 ****   5 GROUP 4 **** **** 0

# MOE 2022.02 (io_trps.svl 2020.11)

@<TRIPOS>MOLECULE
SEL009
17 17 1 0 0 
SMALL
USER_CHARGES


@<TRIPOS>ATOM
  1 H       -1.2690    -2.9470    -0.0070 H     1 <1>   0.5000 
  2 O       -0.3240    -3.2140    -0.0060 O.3   1 <1>  -0.6500 
  3 C        0.3280    -2.0350    -0.0030 C.2   1 <1>   0.6340 
  4 O       -0.2990    -0.9900    -0.0040 O.2   1 <1>  -0.5700 
  5 C        1.8150    -2.1370     0.0000 C.ar  1 <1>   0.0860 
  6 C        2.5080    -0.9120     0.0000 C.ar  1 <1>  -0.1500 
  7 H        1.9730     0.0350    -0.0020 H     1 <1>   0.1500 
  8 C        3.8960    -0.8980     0.0030 C.ar  1 <1>   0.1900 
  9 F        4.5420     0.2760     0.0040 F     1 <1>  -0.1900 
 10 C        4.6080    -2.0870     0.0060 C.ar  1 <1>   0.1900 
 11 F        5.9480    -2.0720     0.0090 F     1 <1>  -0.1900 
 12 C        3.9380    -3.3070     0.0060 C.ar  1 <1>  -0.1500 
 13 H        4.5260    -4.2200     0.0080 H     1 <1>   0.1500 
 14 C        2.5360    -3.3540     0.0030 C.ar  1 <1>   0.1000 
 15 N        1.9230    -4.5980     0.0030 N.pl3 1 <1>  -0.9000 
 16 H        0.9040    -4.6310     0.0000 H     1 <1>   0.4000 
 17 H        2.4410    -5.4650     0.0060 H     1 <1>   0.4000 
@<TRIPOS>BOND
  1   1   2  1   
  2   2   3  1   
  3   3   4  2   
  4   3   5  1   
  5   5   6  ar  
  6   5  14  ar  
  7   6   7  1   
  8   6   8  ar  
  9   8   9  1   
 10   8  10  ar  
 11  10  11  1   
 12  10  12  ar  
 13  12  13  1   
 14  12  14  ar  
 15  14  15  1   
 16  15  16  1   
 17  15  17  1   
@<TRIPOS>SUBSTRUCTURE
  1 ****   5 GROUP 4 **** **** 0

# MOE 2022.02 (io_trps.svl 2020.11)

@<TRIPOS>MOLECULE
SEL010
25 25 1 0 0 
SMALL
USER_CHARGES


@<TRIPOS>ATOM
  1 H        9.7280    -2.4380     0.3220 H     1 <1>   0.5000 
  2 O        9.1660    -1.7580    -0.1050 O.3   1 <1>  -0.6500 
  3 C        7.9230    -2.0100     0.3510 C.2   1 <1>   0.6590 
  4 O        7.7220    -2.9240     1.1380 O.2   1 <1>  -0.5700 
  5 C        6.8710    -1.0490    -0.1930 C.3   1 <1>   0.3610 
  6 H        7.0060    -0.9590    -1.2770 H     1 <1>   0.0000 
  7 N        5.5540    -1.6350     0.0490 N.am  1 <1>  -0.7300 
  8 H        5.4900    -2.3290     0.7860 H     1 <1>   0.3700 
  9 C        4.4460    -1.2630    -0.6760 C.2   1 <1>   0.5440 
 10 O        4.4730    -0.3820    -1.5280 O.2   1 <1>  -0.5700 
 11 C        3.1700    -1.9650    -0.3590 C.ar  1 <1>   0.0860 
 12 C        3.1380    -3.2670     0.1560 C.ar  1 <1>  -0.1500 
 13 H        4.0500    -3.8320     0.3250 H     1 <1>   0.1500 
 14 C        1.9120    -3.8800     0.4310 C.ar  1 <1>  -0.1500 
 15 H        1.8880    -4.8920     0.8290 H     1 <1>   0.1500 
 16 C        0.7180    -3.2010     0.1870 C.ar  1 <1>  -0.1500 
 17 H       -0.2340    -3.6820     0.3990 H     1 <1>   0.1500 
 18 C        0.7440    -1.9110    -0.3400 C.ar  1 <1>  -0.1500 
 19 H       -0.1860    -1.3840    -0.5400 H     1 <1>   0.1500 
 20 C        1.9660    -1.2950    -0.6170 C.ar  1 <1>  -0.1500 
 21 H        1.9790    -0.2900    -1.0330 H     1 <1>   0.1500 
 22 C        7.0050     0.3070     0.4860 C.3   1 <1>   0.0000 
 23 H        6.8730     0.2210     1.5710 H     1 <1>   0.0000 
 24 H        7.9950     0.7400     0.3070 H     1 <1>   0.0000 
 25 H        6.2550     1.0130     0.1160 H     1 <1>   0.0000 
@<TRIPOS>BOND
  1   1   2  1   
  2   2   3  1   
  3   3   4  2   
  4   3   5  1   
  5   5   6  1   
  6   5   7  1   
  7   5  22  1   
  8   7   8  1   
  9   7   9  am  
 10   9  10  2   
 11   9  11  1   
 12  11  12  ar  
 13  11  20  ar  
 14  12  13  1   
 15  12  14  ar  
 16  14  15  1   
 17  14  16  ar  
 18  16  17  1   
 19  16  18  ar  
 20  18  19  1   
 21  18  20  ar  
 22  20  21  1   
 23  22  23  1   
 24  22  24  1   
 25  22  25  1   
@<TRIPOS>SUBSTRUCTURE
  1 ****   9 GROUP 4 **** **** 0

# MOE 2022.02 (io_trps.svl 2020.11)

@<TRIPOS>MOLECULE
SEL011
26 27 1 0 0 
SMALL
USER_CHARGES


@<TRIPOS>ATOM
  1 H       -8.2240     1.6820     0.0820 H     1 <1>   0.1500 
  2 C       -7.2500     2.1660     0.0740 C.ar  1 <1>  -0.1500 
  3 C       -6.1770     1.5830     0.7500 C.ar  1 <1>  -0.1500 
  4 H       -6.3190     0.6490     1.2890 H     1 <1>   0.1500 
  5 C       -4.9260     2.2030     0.7450 C.ar  1 <1>  -0.1500 
  6 H       -4.1100     1.7480     1.3000 H     1 <1>   0.1500 
  7 C       -4.7470     3.4040     0.0480 C.ar  1 <1>   0.0860 
  8 C       -3.4370     4.1030     0.0250 C.2   1 <1>   0.3980 
  9 O       -3.4140     5.3310     0.0540 O.2   1 <1>  -0.5700 
 10 C       -2.1560     3.3540    -0.0360 C.ar  1 <1>   0.0860 
 11 C       -1.0330     3.8980     0.5940 C.ar  1 <1>  -0.1500 
 12 H       -1.1080     4.8450     1.1240 H     1 <1>   0.1500 
 13 C        0.1930     3.2280     0.5450 C.ar  1 <1>  -0.1500 
 14 H        1.0530     3.6670     1.0450 H     1 <1>   0.1500 
 15 C        0.3200     2.0190    -0.1420 C.ar  1 <1>   0.1000 
 16 N        1.5330     1.3600    -0.1900 N.pl3 1 <1>  -0.9000 
 17 H        1.6300     0.4860    -0.6870 H     1 <1>   0.4000 
 18 H        2.3470     1.7430     0.2730 H     1 <1>   0.4000 
 19 C       -0.8020     1.4910    -0.7860 C.ar  1 <1>  -0.1500 
 20 H       -0.7240     0.5590    -1.3400 H     1 <1>   0.1500 
 21 C       -2.0340     2.1530    -0.7430 C.ar  1 <1>  -0.1500 
 22 H       -2.8770     1.7280    -1.2810 H     1 <1>   0.1500 
 23 C       -5.8310     3.9980    -0.6090 C.ar  1 <1>  -0.1500 
 24 H       -5.7030     4.9460    -1.1280 H     1 <1>   0.1500 
 25 C       -7.0790     3.3740    -0.6010 C.ar  1 <1>  -0.1500 
 26 H       -7.9190     3.8350    -1.1160 H     1 <1>   0.1500 
@<TRIPOS>BOND
  1   1   2  1   
  2   2   3  ar  
  3   2  25  ar  
  4   3   4  1   
  5   3   5  ar  
  6   5   6  1   
  7   5   7  ar  
  8   7   8  1   
  9   7  23  ar  
 10   8   9  2   
 11   8  10  1   
 12  10  11  ar  
 13  10  21  ar  
 14  11  12  1   
 15  11  13  ar  
 16  13  14  1   
 17  13  15  ar  
 18  15  16  1   
 19  15  19  ar  
 20  16  17  1   
 21  16  18  1   
 22  19  20  1   
 23  19  21  ar  
 24  21  22  1   
 25  23  24  1   
 26  23  25  ar  
 27  25  26  1   
@<TRIPOS>SUBSTRUCTURE
  1 ****  10 GROUP 4 **** **** 0

# MOE 2022.02 (io_trps.svl 2020.11)

@<TRIPOS>MOLECULE
SEL012
21 21 1 0 0 
SMALL
USER_CHARGES


@<TRIPOS>ATOM
  1 H       -3.7710     3.5290     0.2770 H     1 <1>   0.1500 
  2 C       -2.8600     2.9530     0.1610 C.ar  1 <1>  -0.1500 
  3 C       -2.8990     1.5590     0.0760 C.ar  1 <1>   0.0820 
  4 O       -4.0220     0.7790     0.1250 O.3   1 <1>  -0.3630 
  5 C       -5.2690     1.4520     0.2440 C.3   1 <1>   0.2800 
  6 H       -5.3270     2.0130     1.1820 H     1 <1>   0.0000 
  7 H       -5.4500     2.1020    -0.6190 H     1 <1>   0.0000 
  8 H       -6.0580     0.6930     0.2600 H     1 <1>   0.0000 
  9 C       -1.7060     0.8490    -0.0690 C.ar  1 <1>  -0.1500 
 10 H       -1.7410    -0.2380    -0.1310 H     1 <1>   0.1500 
 11 C       -0.4750     1.5170    -0.1390 C.ar  1 <1>  -0.1440 
 12 C        0.8090     0.7440    -0.2730 C.3   1 <1>   1.1640 
 13 F        1.7750     1.4260    -0.9510 F     1 <1>  -0.3400 
 14 F        1.3550     0.4290     0.9340 F     1 <1>  -0.3400 
 15 F        0.6600    -0.4380    -0.9350 F     1 <1>  -0.3400 
 16 C       -0.4590     2.9160    -0.0420 C.ar  1 <1>  -0.1500 
 17 H        0.4920     3.4440    -0.0830 H     1 <1>   0.1500 
 18 C       -1.6440     3.6420     0.1050 C.ar  1 <1>   0.1000 
 19 N       -1.6120     5.0210     0.1950 N.pl3 1 <1>  -0.9000 
 20 H       -0.7370     5.5240     0.1530 H     1 <1>   0.4000 
 21 H       -2.4650     5.5530     0.3040 H     1 <1>   0.4000 
@<TRIPOS>BOND
  1   1   2  1   
  2   2   3  ar  
  3   2  18  ar  
  4   3   4  1   
  5   3   9  ar  
  6   4   5  1   
  7   5   6  1   
  8   5   7  1   
  9   5   8  1   
 10   9  10  1   
 11   9  11  ar  
 12  11  12  1   
 13  11  16  ar  
 14  12  13  1   
 15  12  14  1   
 16  12  15  1   
 17  16  17  1   
 18  16  18  ar  
 19  18  19  1   
 20  19  20  1   
 21  19  21  1   
@<TRIPOS>SUBSTRUCTURE
  1 ****  11 GROUP 4 **** **** 0

# MOE 2022.02 (io_trps.svl 2020.11)

@<TRIPOS>MOLECULE
SEL013
17 17 1 0 0 
SMALL
USER_CHARGES


@<TRIPOS>ATOM
  1 H       -2.8310    -0.7440    -0.5630 H     1 <1>   0.1500 
  2 C       -2.2720     0.1570    -0.3280 C.ar  1 <1>  -0.1500 
  3 C       -0.8780     0.0970    -0.2150 C.ar  1 <1>  -0.1500 
  4 H       -0.3940    -0.8630    -0.3690 H     1 <1>   0.1500 
  5 C       -0.1230     1.2370     0.0870 C.ar  1 <1>   0.1000 
  6 N        1.2520     1.2280     0.2070 N.pl3 1 <1>  -0.8690 
  7 H        1.7220     2.0950     0.4390 H     1 <1>   0.4000 
  8 C        2.0740     0.0550     0.0220 C.3   1 <1>   0.3690 
  9 H        1.8220    -0.7230     0.7500 H     1 <1>   0.0000 
 10 H        3.1260     0.3190     0.1680 H     1 <1>   0.0000 
 11 H        1.9680    -0.3460    -0.9910 H     1 <1>   0.0000 
 12 C       -0.8130     2.4450     0.2720 C.ar  1 <1>  -0.1500 
 13 H       -0.2630     3.3530     0.5070 H     1 <1>   0.1500 
 14 C       -2.2050     2.5150     0.1610 C.ar  1 <1>  -0.1500 
 15 H       -2.7100     3.4650     0.3090 H     1 <1>   0.1500 
 16 C       -2.9300     1.3680    -0.1400 C.ar  1 <1>   0.1770 
 17 CL      -4.6430     1.4450    -0.2780 Cl    1 <1>  -0.1770 
@<TRIPOS>BOND
  1   1   2  1   
  2   2   3  ar  
  3   2  16  ar  
  4   3   4  1   
  5   3   5  ar  
  6   5   6  1   
  7   5  12  ar  
  8   6   7  1   
  9   6   8  1   
 10   8   9  1   
 11   8  10  1   
 12   8  11  1   
 13  12  13  1   
 14  12  14  ar  
 15  14  15  1   
 16  14  16  ar  
 17  16  17  1   
@<TRIPOS>SUBSTRUCTURE
  1 ****   5 GROUP 4 **** **** 0

# MOE 2022.02 (io_trps.svl 2020.11)

@<TRIPOS>MOLECULE
SEL014
20 20 1 0 0 
SMALL
USER_CHARGES


@<TRIPOS>ATOM
  1 H       -3.1110    -0.7770    -0.1340 H     1 <1>   0.1500 
  2 C       -2.6480     0.2000    -0.1100 C.2   1 <1>  -0.1100 
  3 S       -0.9480     0.3250    -0.0990 S.3   1 <1>  -0.0800 
  4 C       -1.0010     2.0400    -0.0590 C.2   1 <1>  -0.0450 
  5 C        0.2090     2.8480    -0.0350 C.2   1 <1>   0.8050 
  6 O        0.2360     4.0760    -0.0060 O.2   1 <1>  -0.5700 
  7 O        1.3370     2.0730    -0.0480 O.3   1 <1>  -0.4300 
  8 C        2.5580     2.8130    -0.0260 C.3   1 <1>   0.2800 
  9 H        3.3860     2.0990    -0.0360 H     1 <1>   0.0000 
 10 H        2.6280     3.4110     0.8870 H     1 <1>   0.0000 
 11 H        2.6380     3.4470    -0.9140 H     1 <1>   0.0000 
 12 C       -2.3120     2.4860    -0.0550 C.2   1 <1>   0.0830 
 13 N       -2.6550     3.7900    -0.0260 N.pl3 1 <1>  -0.8830 
 14 H       -1.9500     4.5290    -0.0060 H     1 <1>   0.4000 
 15 H       -3.6120     4.1240    -0.0230 H     1 <1>   0.4000 
 16 C       -3.2770     1.4290    -0.0830 C.2   1 <1>  -0.1810 
 17 C       -4.7590     1.6100    -0.0840 C.3   1 <1>   0.1810 
 18 H       -5.0730     2.1880    -0.9600 H     1 <1>   0.0000 
 19 H       -5.0790     2.1400     0.8180 H     1 <1>   0.0000 
 20 H       -5.2800     0.6470    -0.1120 H     1 <1>   0.0000 
@<TRIPOS>BOND
  1   1   2  1   
  2   2   3  1   
  3   2  16  2   
  4   3   4  1   
  5   4   5  1   
  6   4  12  2   
  7   5   6  2   
  8   5   7  1   
  9   7   8  1   
 10   8   9  1   
 11   8  10  1   
 12   8  11  1   
 13  12  13  1   
 14  12  16  1   
 15  13  14  1   
 16  13  15  1   
 17  16  17  1   
 18  17  18  1   
 19  17  19  1   
 20  17  20  1   
@<TRIPOS>SUBSTRUCTURE
  1 ****   4 GROUP 4 **** **** 0

# MOE 2022.02 (io_trps.svl 2020.11)

@<TRIPOS>MOLECULE
SEL015
22 22 1 0 0 
SMALL
USER_CHARGES


@<TRIPOS>ATOM
  1 H        7.4710     0.3350    -1.2100 H     1 <1>   0.4000 
  2 N        6.7730    -0.3140    -0.8400 N.2   1 <1>  -0.8500 
  3 C        5.6540     0.3020    -0.7000 C.2   1 <1>   0.4860 
  4 C        4.4590    -0.3560    -0.1900 C.2   1 <1>  -0.1360 
  5 H        4.3770    -1.3810     0.1130 H     1 <1>   0.1500 
  6 C        3.5740     0.6480    -0.2180 C.2   1 <1>  -0.0610 
  7 C        2.1130     0.6270     0.1960 C.3   1 <1>   0.1380 
  8 C        1.2350     1.0060    -1.0110 C.3   1 <1>   0.0000 
  9 H        1.4670     2.0120    -1.3820 H     1 <1>   0.0000 
 10 H        0.1720     0.9940    -0.7460 H     1 <1>   0.0000 
 11 H        1.3780     0.3050    -1.8420 H     1 <1>   0.0000 
 12 C        1.6600    -0.7580     0.7030 C.3   1 <1>   0.0000 
 13 H        0.6040    -0.7440     0.9960 H     1 <1>   0.0000 
 14 H        1.7740    -1.5260    -0.0700 H     1 <1>   0.0000 
 15 H        2.2370    -1.0720     1.5810 H     1 <1>   0.0000 
 16 C        1.8900     1.6490     1.3260 C.3   1 <1>   0.0000 
 17 H        2.5100     1.4180     2.1990 H     1 <1>   0.0000 
 18 H        2.1340     2.6680     1.0050 H     1 <1>   0.0000 
 19 H        0.8430     1.6530     1.6530 H     1 <1>   0.0000 
 20 O        4.0660     1.8790    -0.6920 O.3   1 <1>  -0.0560 
 21 N        5.3920     1.5990    -0.9830 N.pl3 1 <1>  -0.4710 
 22 H        6.0060     2.3100    -1.3480 H     1 <1>   0.4000 
@<TRIPOS>BOND
  1   1   2  1   
  2   2   3  2   
  3   3   4  1   
  4   3  21  1   
  5   4   5  1   
  6   4   6  2   
  7   6   7  1   
  8   6  20  1   
  9   7   8  1   
 10   7  12  1   
 11   7  16  1   
 12   8   9  1   
 13   8  10  1   
 14   8  11  1   
 15  12  13  1   
 16  12  14  1   
 17  12  15  1   
 18  16  17  1   
 19  16  18  1   
 20  16  19  1   
 21  20  21  1   
 22  21  22  1   
@<TRIPOS>SUBSTRUCTURE
  1 ****   6 GROUP 4 **** **** 0

# MOE 2022.02 (io_trps.svl 2020.11)

@<TRIPOS>MOLECULE
SEL016
18 18 1 0 0 
SMALL
USER_CHARGES


@<TRIPOS>ATOM
  1 H        6.8000     1.1160    -0.7120 H     1 <1>   0.4000 
  2 O        6.0130     1.6850    -0.7080 O.3   1 <1>  -0.6800 
  3 C        4.9760     0.9370    -0.0850 C.3   1 <1>   0.4240 
  4 H        4.8570     0.0040    -0.6450 H     1 <1>   0.0000 
  5 H        5.2790     0.7060     0.9420 H     1 <1>   0.0000 
  6 C        3.6800     1.7030    -0.0660 C.ar  1 <1>  -0.1440 
  7 C        3.6510     3.1020    -0.0350 C.ar  1 <1>  -0.1500 
  8 H        4.5800     3.6680    -0.0630 H     1 <1>   0.1500 
  9 C        2.4360     3.7830     0.0230 C.ar  1 <1>  -0.1500 
 10 H        2.4240     4.8700     0.0380 H     1 <1>   0.1500 
 11 C        1.2370     3.0710     0.0630 C.ar  1 <1>  -0.1500 
 12 H        0.2990     3.6180     0.1080 H     1 <1>   0.1500 
 13 C        1.2360     1.6760     0.0470 C.ar  1 <1>   0.1000 
 14 N        0.0480     0.9710     0.0940 N.pl3 1 <1>  -0.9000 
 15 H       -0.8360     1.4580     0.1390 H     1 <1>   0.4000 
 16 H        0.0450    -0.0390     0.0820 H     1 <1>   0.4000 
 17 C        2.4610     1.0030    -0.0120 C.ar  1 <1>  -0.1500 
 18 H        2.4700    -0.0840    -0.0180 H     1 <1>   0.1500 
@<TRIPOS>BOND
  1   1   2  1   
  2   2   3  1   
  3   3   4  1   
  4   3   5  1   
  5   3   6  1   
  6   6   7  ar  
  7   6  17  ar  
  8   7   8  1   
  9   7   9  ar  
 10   9  10  1   
 11   9  11  ar  
 12  11  12  1   
 13  11  13  ar  
 14  13  14  1   
 15  13  17  ar  
 16  14  15  1   
 17  14  16  1   
 18  17  18  1   
@<TRIPOS>SUBSTRUCTURE
  1 ****   6 GROUP 4 **** **** 0

# MOE 2022.02 (io_trps.svl 2020.11)

@<TRIPOS>MOLECULE
SEL017
20 20 1 0 0 
SMALL
USER_CHARGES


@<TRIPOS>ATOM
  1 H       -4.8240     2.4240     0.6170 H     1 <1>   0.1500 
  2 C       -3.7570     2.4130     0.4170 C.ar  1 <1>  -0.1500 
  3 C       -2.9290     1.5190     1.0950 C.ar  1 <1>  -0.1500 
  4 H       -3.3530     0.8330     1.8240 H     1 <1>   0.1500 
  5 C       -1.5560     1.5050     0.8400 C.ar  1 <1>  -0.1500 
  6 H       -0.9250     0.8020     1.3800 H     1 <1>   0.1500 
  7 C       -0.9980     2.3840    -0.0990 C.ar  1 <1>  -0.1440 
  8 C        0.4860     2.3750    -0.3810 C.3   1 <1>   0.4140 
  9 H        0.9470     1.5050     0.1030 H     1 <1>   0.0000 
 10 H        0.6330     2.2570    -1.4620 H     1 <1>   0.0000 
 11 N        1.1160     3.6090     0.0890 N.3   1 <1>  -0.9000 
 12 H        0.9090     3.7230     1.0800 H     1 <1>   0.3600 
 13 C        2.5570     3.5710    -0.1100 C.3   1 <1>   0.2700 
 14 H        2.8070     3.4670    -1.1710 H     1 <1>   0.0000 
 15 H        3.0190     2.7510     0.4490 H     1 <1>   0.0000 
 16 H        2.9990     4.5090     0.2420 H     1 <1>   0.0000 
 17 C       -1.8410     3.2810    -0.7710 C.ar  1 <1>  -0.1500 
 18 H       -1.4230     3.9800    -1.4930 H     1 <1>   0.1500 
 19 C       -3.2130     3.2950    -0.5150 C.ar  1 <1>  -0.1500 
 20 H       -3.8550     3.9960    -1.0400 H     1 <1>   0.1500 
@<TRIPOS>BOND
  1   1   2  1   
  2   2   3  ar  
  3   2  19  ar  
  4   3   4  1   
  5   3   5  ar  
  6   5   6  1   
  7   5   7  ar  
  8   7   8  1   
  9   7  17  ar  
 10   8   9  1   
 11   8  10  1   
 12   8  11  1   
 13  11  12  1   
 14  11  13  1   
 15  13  14  1   
 16  13  15  1   
 17  13  16  1   
 18  17  18  1   
 19  17  19  ar  
 20  19  20  1   
@<TRIPOS>SUBSTRUCTURE
  1 ****   7 GROUP 4 **** **** 0

# MOE 2022.02 (io_trps.svl 2020.11)

@<TRIPOS>MOLECULE
SEL018
33 33 1 0 0 
SMALL
USER_CHARGES


@<TRIPOS>ATOM
  1 H        0.4290    -2.7080    -0.9290 H     1 <1>   0.4000 
  2 O        0.4310    -2.4020    -0.0050 O.3   1 <1>  -0.6800 
  3 C        1.7660    -1.9970     0.2940 C.3   1 <1>   0.2800 
  4 H        2.4370    -2.8010    -0.0180 H     1 <1>   0.0000 
  5 H        1.8550    -1.9050     1.3820 H     1 <1>   0.0000 
  6 C        2.0970    -0.6630    -0.3930 C.3   1 <1>   0.3000 
  7 H        2.0170    -0.7820    -1.4810 H     1 <1>   0.0000 
  8 N        3.4280    -0.1340    -0.1080 N.am  1 <1>  -0.6600 
  9 C        4.5830    -0.8370    -0.3420 C.2   1 <1>   0.7800 
 10 O        4.6030    -1.9550    -0.8370 O.2   1 <1>  -0.5700 
 11 O        5.6810    -0.1370     0.0430 O.3   1 <1>  -0.4300 
 12 C        7.0120    -0.6910    -0.1130 C.3   1 <1>   0.2800 
 13 C        7.9530     0.4030     0.4160 C.3   1 <1>   0.0000 
 14 H        7.8270     1.3330    -0.1510 H     1 <1>   0.0000 
 15 H        9.0040     0.1010     0.3550 H     1 <1>   0.0000 
 16 H        7.7220     0.6440     1.4600 H     1 <1>   0.0000 
 17 C        7.1940    -1.9480     0.7440 C.3   1 <1>   0.0000 
 18 H        6.8800    -1.7630     1.7780 H     1 <1>   0.0000 
 19 H        6.5890    -2.7830     0.3780 H     1 <1>   0.0000 
 20 H        8.2380    -2.2780     0.7510 H     1 <1>   0.0000 
 21 C        7.3430    -0.9460    -1.5880 C.3   1 <1>   0.0000 
 22 H        6.7600    -1.7750    -2.0010 H     1 <1>   0.0000 
 23 H        8.4020    -1.1950    -1.7210 H     1 <1>   0.0000 
 24 H        7.1120    -0.0650    -2.1960 H     1 <1>   0.0000 
 25 C        3.3700     1.2240     0.4010 C.3   1 <1>   0.3000 
 26 H        4.1800     1.8420     0.0030 H     1 <1>   0.0000 
 27 H        3.4570     1.1770     1.4920 H     1 <1>   0.0000 
 28 C        1.9970     1.7140    -0.0290 C.3   1 <1>   0.0000 
 29 H        1.6260     2.5320     0.5950 H     1 <1>   0.0000 
 30 H        2.0280     2.0600    -1.0690 H     1 <1>   0.0000 
 31 C        1.1460     0.4550     0.0690 C.3   1 <1>   0.0000 
 32 H        0.8410     0.3060     1.1130 H     1 <1>   0.0000 
 33 H        0.2410     0.5110    -0.5430 H     1 <1>   0.0000 
@<TRIPOS>BOND
  1   1   2  1   
  2   2   3  1   
  3   3   4  1   
  4   3   5  1   
  5   3   6  1   
  6   6   7  1   
  7   6   8  1   
  8   6  31  1   
  9   8   9  am  
 10   8  25  1   
 11   9  10  2   
 12   9  11  1   
 13  11  12  1   
 14  12  13  1   
 15  12  17  1   
 16  12  21  1   
 17  13  14  1   
 18  13  15  1   
 19  13  16  1   
 20  17  18  1   
 21  17  19  1   
 22  17  20  1   
 23  21  22  1   
 24  21  23  1   
 25  21  24  1   
 26  25  26  1   
 27  25  27  1   
 28  25  28  1   
 29  28  29  1   
 30  28  30  1   
 31  28  31  1   
 32  31  32  1   
 33  31  33  1   
@<TRIPOS>SUBSTRUCTURE
  1 ****   9 GROUP 4 **** **** 0

# MOE 2022.02 (io_trps.svl 2020.11)

@<TRIPOS>MOLECULE
SEL019
29 29 1 0 0 
SMALL
NO_CHARGES


@<TRIPOS>ATOM
  1 H       -0.9480    -6.1300     0.0000 H     1 <1>   0.0000 
  2 O       -0.7090    -4.9540     0.0000 O.3   1 <1>   0.0000 
  3 B       -1.8330    -3.9610     0.0000 B     1 <1>   0.0000 
  4 O       -3.2560    -4.4380     0.0000 O.3   1 <1>   0.0000 
  5 H       -3.4940    -5.6140     0.0000 H     1 <1>   0.0000 
  6 C       -1.5350    -2.4910     0.0000 C.2   1 <1>   0.0000 
  7 C       -2.5500    -1.3860     0.0000 C.2   1 <1>   0.0000 
  8 H       -3.7420    -1.5220     0.0000 H     1 <1>   0.0000 
  9 C       -1.8120    -0.0800     0.0000 C.2   1 <1>   0.0000 
 10 H       -2.3110     1.0120     0.0000 H     1 <1>   0.0000 
 11 C       -0.3420    -0.3770     0.0000 C.2   1 <1>   0.0000 
 12 H        0.5420     0.4340     0.0000 H     1 <1>   0.0000 
 13 N       -0.1710    -1.8680     0.0000 N.pl3 1 <1>   0.0000 
 14 C        1.1350    -2.6050     0.0000 C.2   1 <1>   0.0000 
 15 O        1.1490    -4.1050     0.0000 O.2   1 <1>   0.0000 
 16 O        2.4270    -1.8430     0.0000 O.3   1 <1>   0.0000 
 17 C        3.7330    -2.5810     0.0000 C.3   1 <1>   0.0000 
 18 C        5.0390    -3.3180     0.0000 C.3   1 <1>   0.0000 
 19 H        4.7440    -3.8410     0.0000 H     1 <1>   0.0000 
 20 H        6.0840    -3.9080     0.0000 H     1 <1>   0.0000 
 21 H        5.3340    -2.7960     0.0000 H     1 <1>   0.0000 
 22 C        4.4710    -1.2750     0.0000 C.3   1 <1>   0.0000 
 23 H        4.9930    -1.5700     0.0000 H     1 <1>   0.0000 
 24 H        5.0610    -0.2300     0.0000 H     1 <1>   0.0000 
 25 H        3.4260    -0.6840     0.0000 H     1 <1>   0.0000 
 26 C        2.9950    -3.8870     0.0000 C.3   1 <1>   0.0000 
 27 H        1.9510    -3.2970     0.0000 H     1 <1>   0.0000 
 28 H        2.4050    -4.9320     0.0000 H     1 <1>   0.0000 
 29 H        3.5180    -4.1820     0.0000 H     1 <1>   0.0000 
@<TRIPOS>BOND
  1   1   2  1   
  2   2   3  1   
  3   3   4  1   
  4   3   6  1   
  5   4   5  1   
  6   6   7  2   
  7   6  13  1   
  8   7   8  1   
  9   7   9  1   
 10   9  10  1   
 11   9  11  2   
 12  11  12  1   
 13  11  13  1   
 14  13  14  1   
 15  14  15  2   
 16  14  16  1   
 17  16  17  1   
 18  17  18  1   
 19  17  22  1   
 20  17  26  1   
 21  18  19  1   
 22  18  20  1   
 23  18  21  1   
 24  22  23  1   
 25  22  24  1   
 26  22  25  1   
 27  26  27  1   
 28  26  28  1   
 29  26  29  1   
@<TRIPOS>SUBSTRUCTURE
  1 ****  14 GROUP 4 **** **** 0

# MOE 2022.02 (io_trps.svl 2020.11)

@<TRIPOS>MOLECULE
SEL020
30 31 1 0 0 
SMALL
USER_CHARGES


@<TRIPOS>ATOM
  1 H        4.6670    -5.4200     1.3990 H     1 <1>   0.1500 
  2 C        3.7430    -5.0500     0.9640 C.ar  1 <1>  -0.1500 
  3 C        2.8360    -4.3410     1.7500 C.ar  1 <1>  -0.1500 
  4 H        3.0520    -4.1600     2.8000 H     1 <1>   0.1500 
  5 C        1.6510    -3.8610     1.1900 C.ar  1 <1>  -0.1500 
  6 H        0.9510    -3.3070     1.8120 H     1 <1>   0.1500 
  7 C        1.3580    -4.0880    -0.1640 C.ar  1 <1>  -0.1440 
  8 C        0.0850    -3.5440    -0.7780 C.3   1 <1>   0.4140 
  9 H        0.0340    -3.7950    -1.8460 H     1 <1>   0.0000 
 10 H        0.1670    -2.4500    -0.7220 H     1 <1>   0.0000 
 11 N       -1.1450    -3.9930    -0.0840 N.3   1 <1>  -0.8100 
 12 C       -2.2890    -3.1840    -0.5500 C.3   1 <1>   0.2700 
 13 H       -2.0500    -2.1190    -0.4410 H     1 <1>   0.0000 
 14 H       -2.4790    -3.3600    -1.6170 H     1 <1>   0.0000 
 15 C       -3.5430    -3.4410     0.2650 C.3   1 <1>   0.1050 
 16 H       -3.3840    -3.2200     1.3260 H     1 <1>   0.0000 
 17 H       -4.3790    -2.8330    -0.0950 H     1 <1>   0.0000 
 18 S       -4.0250    -5.1380     0.1310 S.o2  1 <1>   1.0900 
 19 O       -4.9850    -5.4160     1.1830 O.2   1 <1>  -0.6500 
 20 O       -4.3540    -5.4120    -1.2550 O.2   1 <1>  -0.6500 
 21 C       -2.5170    -5.9750     0.5260 C.3   1 <1>   0.1050 
 22 H       -2.3240    -5.8330     1.5950 H     1 <1>   0.0000 
 23 H       -2.6740    -7.0410     0.3390 H     1 <1>   0.0000 
 24 C       -1.3770    -5.4340    -0.3200 C.3   1 <1>   0.2700 
 25 H       -0.4860    -6.0100    -0.0470 H     1 <1>   0.0000 
 26 H       -1.5650    -5.6250    -1.3840 H     1 <1>   0.0000 
 27 C        2.2800    -4.8010    -0.9450 C.ar  1 <1>  -0.1500 
 28 H        2.0830    -4.9860    -1.9980 H     1 <1>   0.1500 
 29 C        3.4650    -5.2790    -0.3830 C.ar  1 <1>  -0.1500 
 30 H        4.1750    -5.8280    -0.9970 H     1 <1>   0.1500 
@<TRIPOS>BOND
  1   1   2  1   
  2   2   3  ar  
  3   2  29  ar  
  4   3   4  1   
  5   3   5  ar  
  6   5   6  1   
  7   5   7  ar  
  8   7   8  1   
  9   7  27  ar  
 10   8   9  1   
 11   8  10  1   
 12   8  11  1   
 13  11  12  1   
 14  11  24  1   
 15  12  13  1   
 16  12  14  1   
 17  12  15  1   
 18  15  16  1   
 19  15  17  1   
 20  15  18  1   
 21  18  19  2   
 22  18  20  2   
 23  18  21  1   
 24  21  22  1   
 25  21  23  1   
 26  21  24  1   
 27  24  25  1   
 28  24  26  1   
 29  27  28  1   
 30  27  29  ar  
 31  29  30  1   
@<TRIPOS>SUBSTRUCTURE
  1 ****  11 GROUP 4 **** **** 0

# MOE 2022.02 (io_trps.svl 2020.11)

@<TRIPOS>MOLECULE
SEL021
31 31 1 0 0 
SMALL
USER_CHARGES


@<TRIPOS>ATOM
  1 H       -6.6810     6.8680    -0.1440 H     1 <1>   0.1500 
  2 C       -5.7940     6.2430    -0.0910 C.ar  1 <1>  -0.1500 
  3 C       -5.5240     5.3260    -1.1060 C.ar  1 <1>  -0.1500 
  4 H       -6.2030     5.2370    -1.9510 H     1 <1>   0.1500 
  5 C       -4.3840     4.5230    -1.0410 C.ar  1 <1>  -0.1500 
  6 H       -4.1900     3.8140    -1.8420 H     1 <1>   0.1500 
  7 C       -3.5020     4.6270     0.0450 C.ar  1 <1>  -0.1440 
  8 C       -2.2700     3.7570     0.1280 C.3   1 <1>   0.4140 
  9 H       -2.2900     3.0120    -0.6770 H     1 <1>   0.0000 
 10 H       -2.3010     3.2070     1.0770 H     1 <1>   0.0000 
 11 N       -1.0520     4.5640     0.0410 N.3   1 <1>  -0.9000 
 12 H       -1.0760     5.0910    -0.8320 H     1 <1>   0.3600 
 13 C        0.1440     3.7120     0.0670 C.3   1 <1>   0.2700 
 14 H        0.1220     3.0110    -0.7770 H     1 <1>   0.0000 
 15 H        0.1440     3.1290     0.9940 H     1 <1>   0.0000 
 16 C        1.4290     4.5660    -0.0150 C.3   1 <1>   0.2700 
 17 H        1.3480     5.1900    -0.9150 H     1 <1>   0.0000 
 18 H        1.4760     5.2510     0.8430 H     1 <1>   0.0000 
 19 N        2.6670     3.7650    -0.1110 N.3   1 <1>  -0.8100 
 20 C        2.9430     3.0400     1.1310 C.3   1 <1>   0.2700 
 21 H        2.1710     2.2930     1.3350 H     1 <1>   0.0000 
 22 H        3.8850     2.4850     1.0500 H     1 <1>   0.0000 
 23 H        3.0160     3.7120     1.9950 H     1 <1>   0.0000 
 24 C        3.8000     4.6400    -0.4300 C.3   1 <1>   0.2700 
 25 H        4.7190     4.0540    -0.5430 H     1 <1>   0.0000 
 26 H        3.6370     5.1490    -1.3860 H     1 <1>   0.0000 
 27 H        3.9670     5.3990     0.3430 H     1 <1>   0.0000 
 28 C       -3.7840     5.5550     1.0590 C.ar  1 <1>  -0.1500 
 29 H       -3.1050     5.6560     1.9030 H     1 <1>   0.1500 
 30 C       -4.9240     6.3580     0.9910 C.ar  1 <1>  -0.1500 
 31 H       -5.1290     7.0740     1.7820 H     1 <1>   0.1500 
@<TRIPOS>BOND
  1   1   2  1   
  2   2   3  ar  
  3   2  30  ar  
  4   3   4  1   
  5   3   5  ar  
  6   5   6  1   
  7   5   7  ar  
  8   7   8  1   
  9   7  28  ar  
 10   8   9  1   
 11   8  10  1   
 12   8  11  1   
 13  11  12  1   
 14  11  13  1   
 15  13  14  1   
 16  13  15  1   
 17  13  16  1   
 18  16  17  1   
 19  16  18  1   
 20  16  19  1   
 21  19  20  1   
 22  19  24  1   
 23  20  21  1   
 24  20  22  1   
 25  20  23  1   
 26  24  25  1   
 27  24  26  1   
 28  24  27  1   
 29  28  29  1   
 30  28  30  ar  
 31  30  31  1   
@<TRIPOS>SUBSTRUCTURE
  1 ****  11 GROUP 4 **** **** 0

# MOE 2022.02 (io_trps.svl 2020.11)

@<TRIPOS>MOLECULE
SEL022
23 23 1 0 0 
SMALL
USER_CHARGES


@<TRIPOS>ATOM
  1 H       -0.6520    -3.8080     1.7390 H     1 <1>   0.5000 
  2 O        0.1170    -3.2160     1.6200 O.3   1 <1>  -0.6500 
  3 C        0.4600    -3.3660     0.3280 C.2   1 <1>   0.6340 
  4 O       -0.1180    -4.1350    -0.4160 O.2   1 <1>  -0.5700 
  5 C        1.6510    -2.5680     0.0020 C.ar  1 <1>   0.0860 
  6 C        2.8350    -3.3140    -0.1520 C.ar  1 <1>  -0.1500 
  7 H        2.8090    -4.3990    -0.0800 H     1 <1>   0.1500 
  8 C        4.0450    -2.6680    -0.3770 C.ar  1 <1>  -0.1500 
  9 H        4.9610    -3.2410    -0.4910 H     1 <1>   0.1500 
 10 C        4.0710    -1.2820    -0.4460 C.ar  1 <1>  -0.1500 
 11 H        5.0100    -0.7620    -0.6210 H     1 <1>   0.1500 
 12 C        2.8860    -0.5470    -0.3050 C.ar  1 <1>  -0.1500 
 13 H        2.9550     0.5340    -0.4030 H     1 <1>   0.1500 
 14 C        1.6330    -1.1590    -0.0930 C.ar  1 <1>   0.1000 
 15 N        0.4920    -0.3680    -0.0220 N.pl3 1 <1>  -0.8380 
 16 C        0.5420     0.9470     0.6000 C.3   1 <1>   0.3690 
 17 H        0.9150     1.6950    -0.1080 H     1 <1>   0.0000 
 18 H        1.1800     0.9450     1.4910 H     1 <1>   0.0000 
 19 H       -0.4550     1.2640     0.9250 H     1 <1>   0.0000 
 20 C       -0.7810    -0.8080    -0.5740 C.3   1 <1>   0.3690 
 21 H       -1.3750     0.0530    -0.9010 H     1 <1>   0.0000 
 22 H       -0.6450    -1.4440    -1.4550 H     1 <1>   0.0000 
 23 H       -1.3680    -1.3430     0.1790 H     1 <1>   0.0000 
@<TRIPOS>BOND
  1   1   2  1   
  2   2   3  1   
  3   3   4  2   
  4   3   5  1   
  5   5   6  ar  
  6   5  14  ar  
  7   6   7  1   
  8   6   8  ar  
  9   8   9  1   
 10   8  10  ar  
 11  10  11  1   
 12  10  12  ar  
 13  12  13  1   
 14  12  14  ar  
 15  14  15  1   
 16  15  16  1   
 17  15  20  1   
 18  16  17  1   
 19  16  18  1   
 20  16  19  1   
 21  20  21  1   
 22  20  22  1   
 23  20  23  1   
@<TRIPOS>SUBSTRUCTURE
  1 ****   5 GROUP 4 **** **** 0

# MOE 2022.02 (io_trps.svl 2020.11)

@<TRIPOS>MOLECULE
SEL023
22 23 1 0 0 
SMALL
USER_CHARGES


@<TRIPOS>ATOM
  1 H        1.0910    -2.7170     1.5210 H     1 <1>   0.5000 
  2 O        1.1730    -2.0880     0.7740 O.3   1 <1>  -0.6500 
  3 C        1.4750    -0.9180     1.3740 C.2   1 <1>   0.7200 
  4 O        1.5760    -0.8200     2.5860 O.2   1 <1>  -0.5700 
  5 C        1.6740     0.2130     0.4180 C.3   1 <1>   0.0320 
  6 C        3.1150     0.4610    -0.0180 C.ar  1 <1>  -0.0320 
  7 C        3.6420    -0.1420    -1.1750 C.ar  1 <1>  -0.1500 
  8 H        3.0110    -0.7950    -1.7750 H     1 <1>   0.1500 
  9 C        4.9650     0.0760    -1.5720 C.ar  1 <1>  -0.1500 
 10 H        5.3430    -0.4010    -2.4720 H     1 <1>   0.1500 
 11 C        5.7870     0.9000    -0.8100 C.ar  1 <1>   0.1770 
 12 CL       7.4150     1.1700    -1.2950 Cl    1 <1>  -0.1770 
 13 C        5.3000     1.5010     0.3450 C.ar  1 <1>  -0.1500 
 14 H        5.9400     2.1390     0.9480 H     1 <1>   0.1500 
 15 C        3.9760     1.2790     0.7360 C.ar  1 <1>  -0.1500 
 16 H        3.6080     1.7480     1.6480 H     1 <1>   0.1500 
 17 C        0.7640     1.4300     0.5830 C.3   1 <1>  -0.2000 
 18 H        0.0300     1.4140     1.3820 H     1 <1>   0.1000 
 19 H        1.1670     2.4170     0.3840 H     1 <1>   0.1000 
 20 C        0.5580     0.5150    -0.5810 C.3   1 <1>  -0.2000 
 21 H       -0.3190    -0.1230    -0.5780 H     1 <1>   0.1000 
 22 H        0.8210     0.8860    -1.5650 H     1 <1>   0.1000 
@<TRIPOS>BOND
  1   1   2  1   
  2   2   3  1   
  3   3   4  2   
  4   3   5  1   
  5   5   6  1   
  6   5  17  1   
  7   5  20  1   
  8   6   7  ar  
  9   6  15  ar  
 10   7   8  1   
 11   7   9  ar  
 12   9  10  1   
 13   9  11  ar  
 14  11  12  1   
 15  11  13  ar  
 16  13  14  1   
 17  13  15  ar  
 18  15  16  1   
 19  17  18  1   
 20  17  19  1   
 21  17  20  1   
 22  20  21  1   
 23  20  22  1   
@<TRIPOS>SUBSTRUCTURE
  1 ****   6 GROUP 4 **** **** 0

# MOE 2022.02 (io_trps.svl 2020.11)

@<TRIPOS>MOLECULE
SEL024
26 27 1 0 0 
SMALL
USER_CHARGES


@<TRIPOS>ATOM
  1 H       -6.8970    -1.9940    -1.9120 H     1 <1>   0.1500 
  2 C       -5.9750    -1.5550    -1.5410 C.ar  1 <1>  -0.1500 
  3 C       -4.8580    -2.3490    -1.3330 C.ar  1 <1>  -0.1500 
  4 H       -4.8990    -3.4160    -1.5350 H     1 <1>   0.1500 
  5 C       -3.6760    -1.7770    -0.8540 C.ar  1 <1>  -0.1500 
  6 H       -2.8330    -2.4430    -0.6840 H     1 <1>   0.1500 
  7 C       -3.5680    -0.3940    -0.5710 C.ar  1 <1>   0.0000 
  8 C       -2.3730     0.2370    -0.0940 C.ar  1 <1>  -0.1440 
  9 C       -1.0860    -0.5600     0.1090 C.3   1 <1>   0.4140 
 10 H       -0.9940    -1.2710    -0.7200 H     1 <1>   0.0000 
 11 N       -1.1480    -1.3150     1.3630 N.3   1 <1>  -0.9900 
 12 H       -0.2470    -1.7520     1.5480 H     1 <1>   0.3600 
 13 H       -1.3180    -0.6670     2.1310 H     1 <1>   0.3600 
 14 C        0.2140     0.2560     0.0770 C.3   1 <1>   0.0000 
 15 H        1.0860    -0.4090     0.0860 H     1 <1>   0.0000 
 16 H        0.2730     0.8640    -0.8330 H     1 <1>   0.0000 
 17 H        0.3080     0.9230     0.9410 H     1 <1>   0.0000 
 18 C       -2.4080     1.6140     0.2040 C.ar  1 <1>  -0.1500 
 19 H       -1.5340     2.1270     0.5970 H     1 <1>   0.1500 
 20 C       -3.5600     2.3700     0.0060 C.ar  1 <1>  -0.1500 
 21 H       -3.5610     3.4320     0.2370 H     1 <1>   0.1500 
 22 C       -4.7090     1.7650    -0.4870 C.ar  1 <1>  -0.1500 
 23 H       -5.5970     2.3740    -0.6380 H     1 <1>   0.1500 
 24 C       -4.7310     0.3950    -0.7750 C.ar  1 <1>   0.0000 
 25 C       -5.9120    -0.1920    -1.2600 C.ar  1 <1>  -0.1500 
 26 H       -6.8020     0.4140    -1.4190 H     1 <1>   0.1500 
@<TRIPOS>BOND
  1   1   2  1   
  2   2   3  ar  
  3   2  25  ar  
  4   3   4  1   
  5   3   5  ar  
  6   5   6  1   
  7   5   7  ar  
  8   7   8  ar  
  9   7  24  ar  
 10   8   9  1   
 11   8  18  ar  
 12   9  10  1   
 13   9  11  1   
 14   9  14  1   
 15  11  12  1   
 16  11  13  1   
 17  14  15  1   
 18  14  16  1   
 19  14  17  1   
 20  18  19  1   
 21  18  20  ar  
 22  20  21  1   
 23  20  22  ar  
 24  22  23  1   
 25  22  24  ar  
 26  24  25  ar  
 27  25  26  1   
@<TRIPOS>SUBSTRUCTURE
  1 ****   7 GROUP 4 **** **** 0

# MOE 2022.02 (io_trps.svl 2020.11)

@<TRIPOS>MOLECULE
SEL025
25 25 1 0 0 
SMALL
USER_CHARGES


@<TRIPOS>ATOM
  1 H        7.9070    -1.7820    -0.2270 H     1 <1>   0.3600 
  2 N        7.8350    -2.7220     0.1600 N.3   1 <1>  -0.9900 
  3 H        8.6180    -3.2520    -0.2200 H     1 <1>   0.3600 
  4 C        6.5790    -3.3360    -0.2590 C.3   1 <1>   0.2700 
  5 H        6.5670    -3.4230    -1.3510 H     1 <1>   0.0000 
  6 H        6.5240    -4.3480     0.1560 H     1 <1>   0.0000 
  7 C        5.3860    -2.5070     0.2160 C.3   1 <1>   0.0000 
  8 H        5.4580    -1.4960    -0.2040 H     1 <1>   0.0000 
  9 H        5.4130    -2.4090     1.3090 H     1 <1>   0.0000 
 10 C        4.0650    -3.1640    -0.2090 C.3   1 <1>   0.2700 
 11 H        4.0290    -3.2530    -1.3020 H     1 <1>   0.0000 
 12 H        4.0500    -4.1850     0.1950 H     1 <1>   0.0000 
 13 N        2.8930    -2.4460     0.2970 N.3   1 <1>  -0.8100 
 14 C        1.6470    -3.1610     0.0100 C.3   1 <1>   0.2700 
 15 H        1.5920    -3.4730    -1.0410 H     1 <1>   0.0000 
 16 H        1.5220    -4.0440     0.6440 H     1 <1>   0.0000 
 17 C        0.5800    -2.1160     0.2930 C.3   1 <1>   0.0000 
 18 H       -0.2960    -2.2470    -0.3510 H     1 <1>   0.0000 
 19 H        0.2440    -2.1780     1.3350 H     1 <1>   0.0000 
 20 C        1.2650    -0.7760     0.0520 C.3   1 <1>   0.0000 
 21 H        1.2160    -0.1650     0.9610 H     1 <1>   0.0000 
 22 H        0.7830    -0.2160    -0.7560 H     1 <1>   0.0000 
 23 C        2.7070    -1.1200    -0.2960 C.3   1 <1>   0.2700 
 24 H        3.3970    -0.3770     0.1160 H     1 <1>   0.0000 
 25 H        2.8290    -1.1440    -1.3860 H     1 <1>   0.0000 
@<TRIPOS>BOND
  1   1   2  1   
  2   2   3  1   
  3   2   4  1   
  4   4   5  1   
  5   4   6  1   
  6   4   7  1   
  7   7   8  1   
  8   7   9  1   
  9   7  10  1   
 10  10  11  1   
 11  10  12  1   
 12  10  13  1   
 13  13  14  1   
 14  13  23  1   
 15  14  15  1   
 16  14  16  1   
 17  14  17  1   
 18  17  18  1   
 19  17  19  1   
 20  17  20  1   
 21  20  21  1   
 22  20  22  1   
 23  20  23  1   
 24  23  24  1   
 25  23  25  1   
@<TRIPOS>SUBSTRUCTURE
  1 ****  13 GROUP 4 **** **** 0

# MOE 2022.02 (io_trps.svl 2020.11)

@<TRIPOS>MOLECULE
SEL026
22 23 1 0 0 
SMALL
USER_CHARGES


@<TRIPOS>ATOM
  1 H       -5.7470     2.8160    -0.3730 H     1 <1>   0.1500 
  2 C       -4.6650     2.8330    -0.2730 C.ar  1 <1>  -0.1500 
  3 C       -3.9410     1.6490    -0.3070 C.ar  1 <1>  -0.1500 
  4 H       -4.4530     0.7010    -0.4460 H     1 <1>   0.1500 
  5 C       -2.5520     1.6830    -0.1840 C.ar  1 <1>  -0.1500 
  6 H       -2.0150     0.7420    -0.2680 H     1 <1>   0.1500 
  7 C       -1.8700     2.9080    -0.0290 C.ar  1 <1>  -0.0230 
  8 N       -0.4430     2.8700    -0.0060 N.pl3 1 <1>   0.3260 
  9 C        0.3360     1.8280     0.4710 C.2   1 <1>  -0.3020 
 10 H       -0.1160     0.9480     0.9070 H     1 <1>   0.1500 
 11 C        1.6670     2.1560     0.3380 C.2   1 <1>  -0.1500 
 12 H        2.5030     1.5380     0.6400 H     1 <1>   0.1500 
 13 C        1.7250     3.4290    -0.2630 C.2   1 <1>  -0.1500 
 14 H        2.6140     3.9820    -0.5370 H     1 <1>   0.1500 
 15 C        0.4270     3.8380    -0.4750 C.2   1 <1>  -0.3020 
 16 H        0.0560     4.7210    -0.9760 H     1 <1>   0.1500 
 17 C       -2.6040     4.1100     0.0560 C.ar  1 <1>   0.1000 
 18 N       -2.0550     5.3470     0.3640 N.pl3 1 <1>  -0.9000 
 19 H       -1.1010     5.4280     0.6890 H     1 <1>   0.4000 
 20 H       -2.6040     6.1900     0.2790 H     1 <1>   0.4000 
 21 C       -4.0000     4.0470    -0.0910 C.ar  1 <1>  -0.1500 
 22 H       -4.5930     4.9570    -0.0320 H     1 <1>   0.1500 
@<TRIPOS>BOND
  1   1   2  1   
  2   2   3  ar  
  3   2  21  ar  
  4   3   4  1   
  5   3   5  ar  
  6   5   6  1   
  7   5   7  ar  
  8   7   8  1   
  9   7  17  ar  
 10   8   9  1   
 11   8  15  1   
 12   9  10  1   
 13   9  11  2   
 14  11  12  1   
 15  11  13  1   
 16  13  14  1   
 17  13  15  2   
 18  15  16  1   
 19  17  18  1   
 20  17  21  ar  
 21  18  19  1   
 22  18  20  1   
 23  21  22  1   
@<TRIPOS>SUBSTRUCTURE
  1 ****   7 GROUP 4 **** **** 0

# MOE 2022.02 (io_trps.svl 2020.11)

@<TRIPOS>MOLECULE
SEL027
16 16 1 0 0 
SMALL
USER_CHARGES


@<TRIPOS>ATOM
  1 H        2.0560     3.4280     0.9960 H     1 <1>   0.4000 
  2 N        2.9530     2.9730     0.8190 N.2   1 <1>  -0.8500 
  3 C        2.7890     1.7640     0.4120 C.2   1 <1>   0.6470 
  4 N        3.9270     1.0460     0.1400 N.2   1 <1>  -0.6610 
  5 C        3.8000    -0.1730    -0.2710 C.2   1 <1>   0.6410 
  6 S        5.1990    -1.1540    -0.6390 S.3   1 <1>  -0.3710 
  7 C        6.5300     0.0120    -0.2770 C.3   1 <1>   0.2300 
  8 H        6.5010     0.3200     0.7720 H     1 <1>   0.0000 
  9 H        7.4920    -0.4740    -0.4640 H     1 <1>   0.0000 
 10 H        6.4610     0.8920    -0.9220 H     1 <1>   0.0000 
 11 N        2.6060    -0.7930    -0.4530 N.pl3 1 <1>  -0.5500 
 12 H        2.5600    -1.7480    -0.7780 H     1 <1>   0.4000 
 13 C        1.4570    -0.1230    -0.1960 C.2   1 <1>   0.2400 
 14 CL       0.0390    -1.0320    -0.4710 Cl    1 <1>  -0.1400 
 15 C        1.4550     1.1380     0.2330 C.2   1 <1>  -0.1360 
 16 H        0.5620     1.7030     0.4480 H     1 <1>   0.1500 
@<TRIPOS>BOND
  1   1   2  1   
  2   2   3  2   
  3   3   4  1   
  4   3  15  1   
  5   4   5  2   
  6   5   6  1   
  7   5  11  1   
  8   6   7  1   
  9   7   8  1   
 10   7   9  1   
 11   7  10  1   
 12  11  12  1   
 13  11  13  1   
 14  13  14  1   
 15  13  15  2   
 16  15  16  1   
@<TRIPOS>SUBSTRUCTURE
  1 ****   5 GROUP 4 **** **** 0

# MOE 2022.02 (io_trps.svl 2020.11)

@<TRIPOS>MOLECULE
SEL028
22 22 1 0 0 
SMALL
USER_CHARGES


@<TRIPOS>ATOM
  1 H       -3.6620     2.8830     1.5280 H     1 <1>   0.1500 
  2 C       -2.8720     3.1830     0.8460 C.ar  1 <1>   0.1600 
  3 N       -3.1000     4.3330     0.1760 N.ar  1 <1>  -0.6200 
  4 C       -2.1340     4.7340    -0.6790 C.ar  1 <1>   0.1600 
  5 H       -2.3360     5.6630    -1.2030 H     1 <1>   0.1500 
  6 C       -0.9570     4.0360    -0.8950 C.ar  1 <1>  -0.1500 
  7 H       -0.2150     4.4140    -1.5920 H     1 <1>   0.1500 
  8 C       -0.7400     2.8470    -0.1910 C.ar  1 <1>  -0.1440 
  9 C        0.5250     2.0520    -0.3990 C.3   1 <1>   0.4140 
 10 H        0.4840     1.1290     0.1930 H     1 <1>   0.0000 
 11 H        0.5760     1.7590    -1.4550 H     1 <1>   0.0000 
 12 N        1.7020     2.8350    -0.0260 N.3   1 <1>  -0.9000 
 13 H        1.6140     3.1200     0.9490 H     1 <1>   0.3600 
 14 C        2.9290     2.0630    -0.2070 C.3   1 <1>   0.2700 
 15 H        3.0380     1.7660    -1.2560 H     1 <1>   0.0000 
 16 H        2.9080     1.1540     0.4050 H     1 <1>   0.0000 
 17 C        4.1300     2.9060     0.1930 C.3   1 <1>   0.0000 
 18 H        5.0540     2.3370     0.0510 H     1 <1>   0.0000 
 19 H        4.0750     3.2010     1.2470 H     1 <1>   0.0000 
 20 H        4.1960     3.8150    -0.4140 H     1 <1>   0.0000 
 21 C       -1.7260     2.4160     0.7000 C.ar  1 <1>  -0.1500 
 22 H       -1.6120     1.5020     1.2730 H     1 <1>   0.1500 
@<TRIPOS>BOND
  1   1   2  1   
  2   2   3  ar  
  3   2  21  ar  
  4   3   4  ar  
  5   4   5  1   
  6   4   6  ar  
  7   6   7  1   
  8   6   8  ar  
  9   8   9  1   
 10   8  21  ar  
 11   9  10  1   
 12   9  11  1   
 13   9  12  1   
 14  12  13  1   
 15  12  14  1   
 16  14  15  1   
 17  14  16  1   
 18  14  17  1   
 19  17  18  1   
 20  17  19  1   
 21  17  20  1   
 22  21  22  1   
@<TRIPOS>SUBSTRUCTURE
  1 ****   8 GROUP 4 **** **** 0

# MOE 2022.02 (io_trps.svl 2020.11)

@<TRIPOS>MOLECULE
SEL029
19 19 1 0 0 
SMALL
USER_CHARGES


@<TRIPOS>ATOM
  1 H        1.8690     3.3840    -0.3520 H     1 <1>   0.4000 
  2 N        2.8160     3.0150    -0.3670 N.2   1 <1>  -0.8500 
  3 C        2.7860     1.7350    -0.2380 C.2   1 <1>   0.7110 
  4 N        4.0030     1.1130    -0.2430 N.2   1 <1>  -0.6610 
  5 C        3.9600    -0.1680    -0.1120 C.2   1 <1>   0.5860 
  6 O        5.0630    -0.9590    -0.0930 O.3   1 <1>  -0.4300 
  7 C        6.3140    -0.2760    -0.2330 C.3   1 <1>   0.2800 
  8 H        7.1110    -1.0250    -0.2040 H     1 <1>   0.0000 
  9 H        6.4660     0.4210     0.5970 H     1 <1>   0.0000 
 10 H        6.3630     0.2430    -1.1960 H     1 <1>   0.0000 
 11 C        2.7680    -1.0260     0.0410 C.2   1 <1>  -0.1360 
 12 H        2.8710    -2.0960     0.1440 H     1 <1>   0.1500 
 13 C        1.6080    -0.3510     0.0360 C.2   1 <1>  -0.0380 
 14 C        0.2810    -1.0320     0.1780 C.3   1 <1>   0.1380 
 15 H       -0.2460    -0.6580     1.0620 H     1 <1>   0.0000 
 16 H       -0.3410    -0.8410    -0.7030 H     1 <1>   0.0000 
 17 H        0.3870    -2.1170     0.2850 H     1 <1>   0.0000 
 18 N        1.6270     1.0230    -0.1030 N.pl3 1 <1>  -0.5500 
 19 H        0.7430     1.5100    -0.1050 H     1 <1>   0.4000 
@<TRIPOS>BOND
  1   1   2  1   
  2   2   3  2   
  3   3   4  1   
  4   3  18  1   
  5   4   5  2   
  6   5   6  1   
  7   5  11  1   
  8   6   7  1   
  9   7   8  1   
 10   7   9  1   
 11   7  10  1   
 12  11  12  1   
 13  11  13  2   
 14  13  14  1   
 15  13  18  1   
 16  14  15  1   
 17  14  16  1   
 18  14  17  1   
 19  18  19  1   
@<TRIPOS>SUBSTRUCTURE
  1 ****   5 GROUP 4 **** **** 0

# MOE 2022.02 (io_trps.svl 2020.11)

@<TRIPOS>MOLECULE
SEL030
23 23 1 0 0 
SMALL
USER_CHARGES


@<TRIPOS>ATOM
  1 H       10.8880     2.9000    -0.1930 H     1 <1>   0.5000 
  2 O       10.1490     2.2560    -0.2130 O.3   1 <1>  -0.6500 
  3 C        9.0420     3.0230    -0.1510 C.2   1 <1>   0.6590 
  4 O        9.1310     4.2360    -0.0850 O.2   1 <1>  -0.5700 
  5 C        7.7890     2.1910    -0.1670 C.3   1 <1>   0.0610 
  6 H        7.8080     1.5620    -1.0640 H     1 <1>   0.0000 
  7 H        7.7970     1.5470     0.7200 H     1 <1>   0.0000 
  8 C        6.5290     3.0530    -0.1720 C.3   1 <1>   0.0000 
  9 H        6.5340     3.7120    -1.0490 H     1 <1>   0.0000 
 10 H        6.5230     3.7090     0.7070 H     1 <1>   0.0000 
 11 C        5.2690     2.1860    -0.1790 C.3   1 <1>   0.0610 
 12 H        5.2620     1.5540     0.7160 H     1 <1>   0.0000 
 13 H        5.2760     1.5420    -1.0660 H     1 <1>   0.0000 
 14 C        3.9830     3.0090    -0.1960 C.2   1 <1>   0.5940 
 15 O        4.0290     4.2390    -0.2290 O.2   1 <1>  -0.5700 
 16 C        2.7350     2.2460    -0.1750 C.2   1 <1>  -0.0450 
 17 S        1.2370     3.0850    -0.1930 S.3   1 <1>  -0.0800 
 18 C        0.3390     1.6330    -0.1550 C.2   1 <1>  -0.1100 
 19 H       -0.7420     1.6630    -0.1540 H     1 <1>   0.1500 
 20 C        1.1530     0.5240    -0.1290 C.2   1 <1>  -0.1500 
 21 H        0.7750    -0.4910    -0.1030 H     1 <1>   0.1500 
 22 C        2.5350     0.8760    -0.1410 C.2   1 <1>  -0.1500 
 23 H        3.3340     0.1450    -0.1250 H     1 <1>   0.1500 
@<TRIPOS>BOND
  1   1   2  1   
  2   2   3  1   
  3   3   4  2   
  4   3   5  1   
  5   5   6  1   
  6   5   7  1   
  7   5   8  1   
  8   8   9  1   
  9   8  10  1   
 10   8  11  1   
 11  11  12  1   
 12  11  13  1   
 13  11  14  1   
 14  14  15  2   
 15  14  16  1   
 16  16  17  1   
 17  16  22  2   
 18  17  18  1   
 19  18  19  1   
 20  18  20  2   
 21  20  21  1   
 22  20  22  1   
 23  22  23  1   
@<TRIPOS>SUBSTRUCTURE
  1 ****  11 GROUP 4 **** **** 0

# MOE 2022.02 (io_trps.svl 2020.11)

@<TRIPOS>MOLECULE
SEL031
19 19 1 0 0 
SMALL
USER_CHARGES


@<TRIPOS>ATOM
  1 H        0.0690    -1.0200    -0.8260 H     1 <1>   0.5000 
  2 O        0.4580    -0.2070    -1.2160 O.3   1 <1>  -0.6500 
  3 C        1.4600     0.1100    -0.3550 C.2   1 <1>   0.6590 
  4 O        1.6360    -0.5620     0.6480 O.2   1 <1>  -0.5700 
  5 C        2.2000     1.3840    -0.7950 C.3   1 <1>   0.4850 
  6 H        1.6900     2.2310    -0.3210 H     1 <1>   0.0000 
  7 O        2.0950     1.5900    -2.2070 O.3   1 <1>  -0.6800 
  8 H        1.2010     1.2760    -2.4460 H     1 <1>   0.4000 
  9 C        3.6600     1.3760    -0.3890 C.ar  1 <1>  -0.1440 
 10 C        4.0420     1.8710     0.8690 C.ar  1 <1>  -0.1500 
 11 H        3.2970     2.2740     1.5530 H     1 <1>   0.1500 
 12 C        5.3820     1.8500     1.2670 C.ar  1 <1>  -0.1500 
 13 H        5.6570     2.2380     2.2440 H     1 <1>   0.1500 
 14 C        6.3490     1.3280     0.4110 C.ar  1 <1>   0.1110 
 15 BR       8.1610     1.2980     0.9500 Br    1 <1>  -0.1110 
 16 C        5.9900     0.8250    -0.8360 C.ar  1 <1>  -0.1500 
 17 H        6.7400     0.4150    -1.5080 H     1 <1>   0.1500 
 18 C        4.6500     0.8460    -1.2330 C.ar  1 <1>  -0.1500 
 19 H        4.3820     0.4530    -2.2120 H     1 <1>   0.1500 
@<TRIPOS>BOND
  1   1   2  1   
  2   2   3  1   
  3   3   4  2   
  4   3   5  1   
  5   5   6  1   
  6   5   7  1   
  7   5   9  1   
  8   7   8  1   
  9   9  10  ar  
 10   9  18  ar  
 11  10  11  1   
 12  10  12  ar  
 13  12  13  1   
 14  12  14  ar  
 15  14  15  1   
 16  14  16  ar  
 17  16  17  1   
 18  16  18  ar  
 19  18  19  1   
@<TRIPOS>SUBSTRUCTURE
  1 ****   9 GROUP 4 **** **** 0

# MOE 2022.02 (io_trps.svl 2020.11)

@<TRIPOS>MOLECULE
SEL032
25 25 1 0 0 
SMALL
USER_CHARGES


@<TRIPOS>ATOM
  1 H       -4.9540    -4.1080    -0.4770 H     1 <1>   0.1500 
  2 C       -4.8840    -3.0330    -0.3320 C.ar  1 <1>  -0.1500 
  3 C       -3.6290    -2.4310    -0.2040 C.ar  1 <1>  -0.1500 
  4 H       -2.7560    -3.0730    -0.2520 H     1 <1>   0.1500 
  5 C       -3.5240    -1.0490    -0.0170 C.ar  1 <1>   0.0820 
  6 O       -2.3480    -0.3620     0.1200 O.3   1 <1>  -0.3630 
  7 C       -1.1350    -1.0810    -0.0320 C.3   1 <1>   0.3410 
  8 H       -1.0390    -1.8360     0.7580 H     1 <1>   0.0000 
  9 H       -1.0930    -1.5550    -1.0200 H     1 <1>   0.0000 
 10 C        0.0710    -0.1490     0.0840 C.2   1 <1>   0.5690 
 11 O        0.0070     1.0500     0.3510 O.2   1 <1>  -0.5700 
 12 N        1.2830    -0.8000    -0.1460 N.am  1 <1>  -0.4210 
 13 H        1.3250    -1.7920    -0.3680 H     1 <1>   0.3700 
 14 N        2.4890    -0.0710    -0.0710 N.3   1 <1>  -0.7290 
 15 H        2.5190     0.3690     0.8570 H     1 <1>   0.3600 
 16 H        2.3910     0.7380    -0.6960 H     1 <1>   0.3600 
 17 C       -4.6920    -0.2650     0.0490 C.ar  1 <1>  -0.1440 
 18 C       -4.6070     1.2230     0.2580 C.3   1 <1>   0.1440 
 19 H       -4.1360     1.4430     1.2220 H     1 <1>   0.0000 
 20 H       -4.0260     1.6870    -0.5460 H     1 <1>   0.0000 
 21 H       -5.5990     1.6860     0.2590 H     1 <1>   0.0000 
 22 C       -5.9480    -0.8790    -0.0810 C.ar  1 <1>  -0.1500 
 23 H       -6.8550    -0.2820    -0.0320 H     1 <1>   0.1500 
 24 C       -6.0370    -2.2560    -0.2700 C.ar  1 <1>   0.1770 
 25 CL      -7.5790    -3.0010    -0.4280 Cl    1 <1>  -0.1770 
@<TRIPOS>BOND
  1   1   2  1   
  2   2   3  ar  
  3   2  24  ar  
  4   3   4  1   
  5   3   5  ar  
  6   5   6  1   
  7   5  17  ar  
  8   6   7  1   
  9   7   8  1   
 10   7   9  1   
 11   7  10  1   
 12  10  11  2   
 13  10  12  am  
 14  12  13  1   
 15  12  14  1   
 16  14  15  1   
 17  14  16  1   
 18  17  18  1   
 19  17  22  ar  
 20  18  19  1   
 21  18  20  1   
 22  18  21  1   
 23  22  23  1   
 24  22  24  ar  
 25  24  25  1   
@<TRIPOS>SUBSTRUCTURE
  1 ****   5 GROUP 4 **** **** 0

# MOE 2022.02 (io_trps.svl 2020.11)

@<TRIPOS>MOLECULE
SEL033
16 16 1 0 0 
SMALL
USER_CHARGES


@<TRIPOS>ATOM
  1 H       -0.1750     2.0720    -0.0470 H     1 <1>   0.4000 
  2 N        0.0840     1.1220    -0.3140 N.2   1 <1>  -0.8500 
  3 C        1.3540     0.9700    -0.2370 C.2   1 <1>   0.6410 
  4 S        2.0980    -0.5570    -0.6350 S.3   1 <1>  -0.2820 
  5 C        3.6330     0.1910    -0.2540 C.2   1 <1>   0.7320 
  6 S        5.0680    -0.7710    -0.4060 S.3   1 <1>  -0.3710 
  7 C        6.3270     0.4310     0.1020 C.3   1 <1>   0.2300 
  8 H        6.3050     1.2940    -0.5710 H     1 <1>   0.0000 
  9 H        6.1170     0.7770     1.1190 H     1 <1>   0.0000 
 10 C        7.7040    -0.2100     0.0590 C.3   1 <1>   0.0000 
 11 H        7.7710    -1.0640     0.7420 H     1 <1>   0.0000 
 12 H        7.9590    -0.5490    -0.9500 H     1 <1>   0.0000 
 13 H        8.4630     0.5180     0.3650 H     1 <1>   0.0000 
 14 N        3.6170     1.4350     0.1260 N.2   1 <1>  -0.4920 
 15 N        2.3090     1.8740     0.1340 N.pl3 1 <1>  -0.4650 
 16 H        2.0700     2.7790     0.3890 H     1 <1>   0.4570 
@<TRIPOS>BOND
  1   1   2  1   
  2   2   3  2   
  3   3   4  1   
  4   3  15  1   
  5   4   5  1   
  6   5   6  1   
  7   5  14  2   
  8   6   7  1   
  9   7   8  1   
 10   7   9  1   
 11   7  10  1   
 12  10  11  1   
 13  10  12  1   
 14  10  13  1   
 15  14  15  1   
 16  15  16  1   
@<TRIPOS>SUBSTRUCTURE
  1 ****   5 GROUP 4 **** **** 0

# MOE 2022.02 (io_trps.svl 2020.11)

@<TRIPOS>MOLECULE
SEL034
19 20 1 0 0 
SMALL
USER_CHARGES


@<TRIPOS>ATOM
  1 H        5.3260     1.6990    -0.0340 H     1 <1>   0.1500 
  2 C        4.2390     1.7140    -0.0270 C.ar  1 <1>  -0.1500 
  3 C        3.5290     0.5320    -0.2130 C.ar  1 <1>  -0.1500 
  4 H        4.0680    -0.4010    -0.3650 H     1 <1>   0.1500 
  5 C        2.1310     0.5240    -0.2090 C.ar  1 <1>  -0.1500 
  6 H        1.5850    -0.4020    -0.3550 H     1 <1>   0.1500 
  7 C        1.4650     1.7440    -0.0110 C.ar  1 <1>  -0.1520 
  8 C        2.1590     2.9430     0.1780 C.ar  1 <1>   0.0000 
  9 C        3.5670     2.9260     0.1690 C.ar  1 <1>  -0.1500 
 10 H        4.1280     3.8440     0.3140 H     1 <1>   0.1500 
 11 C        1.1890     3.9690     0.3460 C.2   1 <1>  -0.1500 
 12 H        1.3850     5.0200     0.5140 H     1 <1>   0.1500 
 13 C       -0.0560     3.3890     0.2580 C.2   1 <1>  -0.3020 
 14 H       -1.0440     3.8250     0.3320 H     1 <1>   0.1500 
 15 N        0.1210     2.0480     0.0420 N.pl3 1 <1>   0.0480 
 16 C       -0.9510     1.0900    -0.1080 C.3   1 <1>   0.2560 
 17 H       -0.8670     0.6300    -1.0960 H     1 <1>   0.0000 
 18 H       -1.9140     1.5990    -0.0180 H     1 <1>   0.0000 
 19 H       -0.8560     0.3380     0.6790 H     1 <1>   0.0000 
@<TRIPOS>BOND
  1   1   2  1   
  2   2   3  ar  
  3   2   9  ar  
  4   3   4  1   
  5   3   5  ar  
  6   5   6  1   
  7   5   7  ar  
  8   7   8  ar  
  9   7  15  1   
 10   8   9  ar  
 11   8  11  1   
 12   9  10  1   
 13  11  12  1   
 14  11  13  2   
 15  13  14  1   
 16  13  15  1   
 17  15  16  1   
 18  16  17  1   
 19  16  18  1   
 20  16  19  1   
@<TRIPOS>SUBSTRUCTURE
  1 ****   7 GROUP 4 **** **** 0

# MOE 2022.02 (io_trps.svl 2020.11)

@<TRIPOS>MOLECULE
SEL035
28 29 1 0 0 
SMALL
USER_CHARGES


@<TRIPOS>ATOM
  1 H       -2.1910     1.6150     1.9760 H     1 <1>   0.1500 
  2 C       -2.1080     2.5360     1.4050 C.ar  1 <1>  -0.1500 
  3 C       -3.1960     3.4020     1.3260 C.ar  1 <1>  -0.1500 
  4 H       -4.1220     3.1480     1.8380 H     1 <1>   0.1500 
  5 C       -3.1160     4.5940     0.6020 C.ar  1 <1>  -0.1500 
  6 H       -3.9650     5.2680     0.5450 H     1 <1>   0.1500 
  7 C       -1.9060     4.8840    -0.0410 C.ar  1 <1>  -0.1520 
  8 C       -0.7980     4.0380     0.0180 C.ar  1 <1>   0.0000 
  9 C       -0.9060     2.8410     0.7570 C.ar  1 <1>  -0.1500 
 10 H       -0.0650     2.1590     0.8300 H     1 <1>   0.1500 
 11 C        0.2490     4.6470    -0.7480 C.2   1 <1>  -0.1810 
 12 C        1.6200     4.0990    -0.9820 C.3   1 <1>   0.2420 
 13 H        2.0500     4.5440    -1.8870 H     1 <1>   0.0000 
 14 H        1.5480     3.0160    -1.1380 H     1 <1>   0.0000 
 15 C        2.5790     4.3570     0.1620 C.2   1 <1>   0.6590 
 16 O        2.4150     5.1250     1.1000 O.2   1 <1>  -0.5700 
 17 O        3.7080     3.6070    -0.0310 O.3   1 <1>  -0.4300 
 18 C        4.7110     3.7840     0.9770 C.3   1 <1>   0.2800 
 19 H        4.3010     3.5260     1.9590 H     1 <1>   0.0000 
 20 H        5.0500     4.8250     0.9790 H     1 <1>   0.0000 
 21 C        5.8750     2.8680     0.6510 C.3   1 <1>   0.0000 
 22 H        6.2780     3.0950    -0.3420 H     1 <1>   0.0000 
 23 H        5.5480     1.8230     0.6300 H     1 <1>   0.0000 
 24 H        6.6740     2.9730     1.3900 H     1 <1>   0.0000 
 25 C       -0.2590     5.8320    -1.2470 C.2   1 <1>  -0.3020 
 26 H        0.1920     6.5950    -1.8680 H     1 <1>   0.1500 
 27 N       -1.5480     5.9670    -0.8070 N.pl3 1 <1>   0.0330 
 28 H       -2.1550     6.7480    -1.0130 H     1 <1>   0.2700 
@<TRIPOS>BOND
  1   1   2  1   
  2   2   3  ar  
  3   2   9  ar  
  4   3   4  1   
  5   3   5  ar  
  6   5   6  1   
  7   5   7  ar  
  8   7   8  ar  
  9   7  27  1   
 10   8   9  ar  
 11   8  11  1   
 12   9  10  1   
 13  11  12  1   
 14  11  25  2   
 15  12  13  1   
 16  12  14  1   
 17  12  15  1   
 18  15  16  2   
 19  15  17  1   
 20  17  18  1   
 21  18  19  1   
 22  18  20  1   
 23  18  21  1   
 24  21  22  1   
 25  21  23  1   
 26  21  24  1   
 27  25  26  1   
 28  25  27  1   
 29  27  28  1   
@<TRIPOS>SUBSTRUCTURE
  1 ****  11 GROUP 4 **** **** 0

# MOE 2022.02 (io_trps.svl 2020.11)

@<TRIPOS>MOLECULE
SEL036
15 15 1 0 0 
SMALL
USER_CHARGES


@<TRIPOS>ATOM
  1 H        1.6460     3.5740     1.3060 H     1 <1>   0.4000 
  2 N        2.3040     2.8660     0.9710 N.2   1 <1>  -0.8500 
  3 C        1.6560     1.8900     0.4260 C.2   1 <1>   0.5000 
  4 C        2.4380     0.7060    -0.1520 C.2   1 <1>   0.4500 
  5 C        3.9500     0.6540    -0.0790 C.2   1 <1>   0.7200 
  6 O        4.5810     0.1640     0.8360 O.2   1 <1>  -0.5700 
  7 O        4.5240     1.1820    -1.1690 O.3   1 <1>  -0.6500 
  8 H        5.4830     1.0770    -1.0030 H     1 <1>   0.5000 
  9 N        1.8250    -0.3050    -0.7270 N.2   1 <1>  -0.6210 
 10 C        0.4480    -0.2620    -0.7860 C.2   1 <1>   0.0210 
 11 H       -0.0310    -1.1120    -1.2660 H     1 <1>   0.1500 
 12 C       -0.2930     0.7420    -0.2930 C.2   1 <1>  -0.0500 
 13 H       -1.3760     0.7540    -0.3500 H     1 <1>   0.1500 
 14 N        0.2910     1.8210     0.3140 N.pl3 1 <1>  -0.5500 
 15 H       -0.3040     2.5550     0.6710 H     1 <1>   0.4000 
@<TRIPOS>BOND
  1   1   2  1   
  2   2   3  2   
  3   3   4  1   
  4   3  14  1   
  5   4   5  1   
  6   4   9  2   
  7   5   6  2   
  8   5   7  1   
  9   7   8  1   
 10   9  10  1   
 11  10  11  1   
 12  10  12  2   
 13  12  13  1   
 14  12  14  1   
 15  14  15  1   
@<TRIPOS>SUBSTRUCTURE
  1 ****   4 GROUP 4 **** **** 0

# MOE 2022.02 (io_trps.svl 2020.11)

@<TRIPOS>MOLECULE
SEL037
29 29 1 0 0 
SMALL
USER_CHARGES


@<TRIPOS>ATOM
  1 H        7.5430    -2.7890    -0.5140 H     1 <1>   0.5000 
  2 O        6.5850    -2.6000    -0.4270 O.3   1 <1>  -0.6500 
  3 C        6.0110    -3.8150    -0.4730 C.2   1 <1>   0.6340 
  4 O        6.6780    -4.8250    -0.5990 O.2   1 <1>  -0.5700 
  5 C        4.5330    -3.7610    -0.3560 C.ar  1 <1>   0.0860 
  6 C        3.8240    -4.9650    -0.3980 C.ar  1 <1>  -0.1500 
  7 H        4.3530    -5.9100    -0.5130 H     1 <1>   0.1500 
  8 C        2.4310    -4.9660    -0.2930 C.ar  1 <1>  -0.1500 
  9 H        1.9210    -5.9230    -0.3300 H     1 <1>   0.1500 
 10 C        1.7350    -3.7620    -0.1450 C.ar  1 <1>   0.0820 
 11 O        0.3700    -3.6640    -0.0330 O.3   1 <1>  -0.3630 
 12 C       -0.3930    -4.8660    -0.0840 C.3   1 <1>   0.2800 
 13 H       -0.2410    -5.3740    -1.0430 H     1 <1>   0.0000 
 14 H       -0.1150    -5.5290     0.7430 H     1 <1>   0.0000 
 15 C       -1.8590    -4.4950     0.0510 C.3   1 <1>   0.0000 
 16 H       -2.1610    -3.8150    -0.7530 H     1 <1>   0.0000 
 17 H       -2.4920    -5.3860     0.0170 H     1 <1>   0.0000 
 18 H       -2.0380    -3.9700     0.9960 H     1 <1>   0.0000 
 19 C        2.4470    -2.5450    -0.1010 C.ar  1 <1>   0.0820 
 20 O        1.6860    -1.4110     0.0470 O.3   1 <1>  -0.3630 
 21 C        2.3560    -0.1560     0.1030 C.3   1 <1>   0.2800 
 22 H        2.9060     0.0240    -0.8280 H     1 <1>   0.0000 
 23 H        3.0420    -0.1270     0.9580 H     1 <1>   0.0000 
 24 C        1.3060     0.9270     0.2750 C.3   1 <1>   0.0000 
 25 H        0.7290     0.7620     1.1910 H     1 <1>   0.0000 
 26 H        1.7700     1.9160     0.3240 H     1 <1>   0.0000 
 27 H        0.5950     0.9100    -0.5570 H     1 <1>   0.0000 
 28 C        3.8430    -2.5510    -0.2080 C.ar  1 <1>  -0.1500 
 29 H        4.4100    -1.6270    -0.1770 H     1 <1>   0.1500 
@<TRIPOS>BOND
  1   1   2  1   
  2   2   3  1   
  3   3   4  2   
  4   3   5  1   
  5   5   6  ar  
  6   5  28  ar  
  7   6   7  1   
  8   6   8  ar  
  9   8   9  1   
 10   8  10  ar  
 11  10  11  1   
 12  10  19  ar  
 13  11  12  1   
 14  12  13  1   
 15  12  14  1   
 16  12  15  1   
 17  15  16  1   
 18  15  17  1   
 19  15  18  1   
 20  19  20  1   
 21  19  28  ar  
 22  20  21  1   
 23  21  22  1   
 24  21  23  1   
 25  21  24  1   
 26  24  25  1   
 27  24  26  1   
 28  24  27  1   
 29  28  29  1   
@<TRIPOS>SUBSTRUCTURE
  1 ****  19 GROUP 4 **** **** 0

# MOE 2022.02 (io_trps.svl 2020.11)

@<TRIPOS>MOLECULE
SEL038
31 32 1 0 0 
SMALL
USER_CHARGES


@<TRIPOS>ATOM
  1 H        7.4210    -0.8620     0.1760 H     1 <1>   0.5000 
  2 O        6.4930    -1.1820     0.1340 O.3   1 <1>  -0.6840 
  3 S        5.7830    -0.8010     1.5350 S.o2  1 <1>   1.3780 
  4 O        6.6400     0.2090     2.1150 O.2   1 <1>  -0.6500 
  5 O        5.4820    -2.0390     2.2100 O.2   1 <1>  -0.6500 
  6 C        4.3230    -0.0160     0.8560 C.3   1 <1>   0.1050 
  7 H        3.9930     0.6970     1.6220 H     1 <1>   0.0000 
  8 H        4.6650     0.5760     0.0010 H     1 <1>   0.0000 
  9 C        3.1960    -0.9540     0.4750 C.3   1 <1>   0.0610 
 10 C        2.3430    -1.3890     1.6690 C.2   1 <1>   0.4480 
 11 O        2.6640    -1.3010     2.8430 O.2   1 <1>  -0.5700 
 12 C        0.9950    -1.8740     1.1750 C.3   1 <1>   0.0610 
 13 H        0.8350    -2.9240     1.4290 H     1 <1>   0.0000 
 14 H        0.1970    -1.2490     1.5810 H     1 <1>   0.0000 
 15 C        1.2050    -1.6370    -0.3390 C.3   1 <1>   0.0000 
 16 H        0.2680    -1.6110    -0.9000 H     1 <1>   0.0000 
 17 C        2.1810    -2.7240    -0.8410 C.3   1 <1>   0.0000 
 18 H        2.2190    -2.7560    -1.9350 H     1 <1>   0.0000 
 19 H        1.9060    -3.7260    -0.4960 H     1 <1>   0.0000 
 20 C        3.5390    -2.2730    -0.2600 C.3   1 <1>   0.0000 
 21 H        3.9270    -3.0460     0.4120 H     1 <1>   0.0000 
 22 H        4.2680    -2.1250    -1.0630 H     1 <1>   0.0000 
 23 C        2.0620    -0.3410    -0.4080 C.3   1 <1>   0.0000 
 24 C        1.3740     0.9050     0.1880 C.3   1 <1>   0.0000 
 25 H        2.0330     1.7790     0.1260 H     1 <1>   0.0000 
 26 H        0.4590     1.1380    -0.3680 H     1 <1>   0.0000 
 27 H        1.0960     0.8030     1.2410 H     1 <1>   0.0000 
 28 C        2.4880     0.0410    -1.8410 C.3   1 <1>   0.0000 
 29 H        3.0550    -0.7310    -2.3640 H     1 <1>   0.0000 
 30 H        3.1180     0.9380    -1.8330 H     1 <1>   0.0000 
 31 H        1.6060     0.2620    -2.4530 H     1 <1>   0.0000 
@<TRIPOS>BOND
  1   1   2  1   
  2   2   3  1   
  3   3   4  2   
  4   3   5  2   
  5   3   6  1   
  6   6   7  1   
  7   6   8  1   
  8   6   9  1   
  9   9  10  1   
 10   9  20  1   
 11   9  23  1   
 12  10  11  2   
 13  10  12  1   
 14  12  13  1   
 15  12  14  1   
 16  12  15  1   
 17  15  16  1   
 18  15  17  1   
 19  15  23  1   
 20  17  18  1   
 21  17  19  1   
 22  17  20  1   
 23  20  21  1   
 24  20  22  1   
 25  23  24  1   
 26  23  28  1   
 27  24  25  1   
 28  24  26  1   
 29  24  27  1   
 30  28  29  1   
 31  28  30  1   
 32  28  31  1   
@<TRIPOS>SUBSTRUCTURE
  1 ****   9 GROUP 4 **** **** 0

# MOE 2022.02 (io_trps.svl 2020.11)

@<TRIPOS>MOLECULE
SEL039
15 15 1 0 0 
SMALL
USER_CHARGES


@<TRIPOS>ATOM
  1 H       -5.1710     3.5740    -0.8620 H     1 <1>   0.1500 
  2 C       -4.2720     3.0230    -0.6210 C.2   1 <1>  -0.1100 
  3 S       -2.7390     3.6920    -0.9620 S.3   1 <1>  -0.0800 
  4 C       -1.9130     2.3180    -0.3360 C.2   1 <1>  -0.0450 
  5 C       -0.4540     2.3120    -0.3590 C.2   1 <1>   0.7150 
  6 O        0.2430     3.2260    -0.8050 O.2   1 <1>  -0.5700 
  7 N        0.1500     1.1680     0.1710 N.am  1 <1>  -0.4210 
  8 H       -0.3990     0.4010     0.5450 H     1 <1>   0.3700 
  9 N        1.5620     1.0570     0.1970 N.3   1 <1>  -0.7290 
 10 H        1.8910     1.2130    -0.7640 H     1 <1>   0.3600 
 11 H        1.9180     1.8840     0.6920 H     1 <1>   0.3600 
 12 C       -2.8160     1.3720     0.1220 C.2   1 <1>  -0.1500 
 13 H       -2.5410     0.4210     0.5600 H     1 <1>   0.1500 
 14 C       -4.1740     1.7800    -0.0430 C.2   1 <1>  -0.1500 
 15 H       -5.0350     1.1890     0.2490 H     1 <1>   0.1500 
@<TRIPOS>BOND
  1   1   2  1   
  2   2   3  1   
  3   2  14  2   
  4   3   4  1   
  5   4   5  1   
  6   4  12  2   
  7   5   6  2   
  8   5   7  am  
  9   7   8  1   
 10   7   9  1   
 11   9  10  1   
 12   9  11  1   
 13  12  13  1   
 14  12  14  1   
 15  14  15  1   
@<TRIPOS>SUBSTRUCTURE
  1 ****   4 GROUP 4 **** **** 0

# MOE 2022.02 (io_trps.svl 2020.11)

@<TRIPOS>MOLECULE
SEL040
15 15 1 0 0 
SMALL
USER_CHARGES


@<TRIPOS>ATOM
  1 H        7.6150     0.8570    -0.0290 H     1 <1>   0.4000 
  2 N        7.1940    -0.0760    -0.0140 N.2   1 <1>  -0.8500 
  3 C        5.9030    -0.0030    -0.0100 C.2   1 <1>   0.4860 
  4 C        5.1850     1.3140    -0.0250 C.2   1 <1>  -0.1360 
  5 H        5.7560     2.2320    -0.0420 H     1 <1>   0.1500 
  6 C        3.8370     1.2820    -0.0180 C.2   1 <1>  -0.1500 
  7 H        3.2720     2.2100    -0.0290 H     1 <1>   0.1500 
  8 C        3.1030     0.0190     0.0050 C.2   1 <1>   0.2040 
  9 N        1.6430    -0.0250     0.0150 N.pl3 1 <1>   0.8360 
 10 O        1.0870    -1.1330     0.0350 O.2   1 <1>  -0.5200 
 11 O        1.0450     1.0600     0.0030 O.2   1 <1>  -0.5200 
 12 C        3.7800    -1.1460     0.0170 C.2   1 <1>  -0.0500 
 13 H        3.3220    -2.1300     0.0340 H     1 <1>   0.1500 
 14 N        5.1580    -1.1570     0.0090 N.pl3 1 <1>  -0.5500 
 15 H        5.6600    -2.0370     0.0190 H     1 <1>   0.4000 
@<TRIPOS>BOND
  1   1   2  1   
  2   2   3  2   
  3   3   4  1   
  4   3  14  1   
  5   4   5  1   
  6   4   6  2   
  7   6   7  1   
  8   6   8  1   
  9   8   9  1   
 10   8  12  2   
 11   9  10  2   
 12   9  11  2   
 13  12  13  1   
 14  12  14  1   
 15  14  15  1   
@<TRIPOS>SUBSTRUCTURE
  1 ****   8 GROUP 4 **** **** 0

# MOE 2022.02 (io_trps.svl 2020.11)

@<TRIPOS>MOLECULE
SEL041
16 17 1 0 0 
SMALL
USER_CHARGES


@<TRIPOS>ATOM
  1 H        7.9470     1.0240     0.0010 H     1 <1>   0.4000 
  2 N        7.6960     0.0290     0.0020 N.2   1 <1>  -0.8500 
  3 C        6.4140    -0.0300     0.0020 C.2   1 <1>   0.6500 
  4 O        5.6610     1.1480     0.0000 O.3   1 <1>  -0.2320 
  5 C        4.3570     0.6560    -0.0010 C.ar  1 <1>   0.0820 
  6 C        3.2090     1.4170    -0.0040 C.ar  1 <1>  -0.1500 
  7 H        3.2480     2.5000    -0.0050 H     1 <1>   0.1500 
  8 C        1.9930     0.7280    -0.0060 C.ar  1 <1>  -0.1500 
  9 H        1.0600     1.2870    -0.0090 H     1 <1>   0.1500 
 10 C        1.9710    -0.6810    -0.0040 C.ar  1 <1>   0.1770 
 11 CL       0.4540    -1.4980    -0.0070 Cl    1 <1>  -0.1770 
 12 C        3.1520    -1.4300    -0.0010 C.ar  1 <1>  -0.1500 
 13 H        3.1310    -2.5140     0.0000 H     1 <1>   0.1500 
 14 C        4.3360    -0.7350     0.0000 C.ar  1 <1>   0.1000 
 15 N        5.6390    -1.1490     0.0030 N.pl3 1 <1>  -0.5500 
 16 H        6.0020    -2.0830     0.0040 H     1 <1>   0.4000 
@<TRIPOS>BOND
  1   1   2  1   
  2   2   3  2   
  3   3   4  1   
  4   3  15  1   
  5   4   5  1   
  6   5   6  ar  
  7   5  14  ar  
  8   6   7  1   
  9   6   8  ar  
 10   8   9  1   
 11   8  10  ar  
 12  10  11  1   
 13  10  12  ar  
 14  12  13  1   
 15  12  14  ar  
 16  14  15  1   
 17  15  16  1   
@<TRIPOS>SUBSTRUCTURE
  1 ****  14 GROUP 4 **** **** 0

# MOE 2022.02 (io_trps.svl 2020.11)

@<TRIPOS>MOLECULE
SEL042
26 26 1 0 0 
SMALL
USER_CHARGES


@<TRIPOS>ATOM
  1 H       -5.8970    -4.7000     0.5330 H     1 <1>   0.3600 
  2 N       -4.9830    -4.2630     0.6510 N.3   1 <1>  -0.9000 
  3 C       -4.0690    -4.7050    -0.3930 C.3   1 <1>   0.2700 
  4 H       -4.4140    -4.3650    -1.3770 H     1 <1>   0.0000 
  5 H       -4.0560    -5.8000    -0.4270 H     1 <1>   0.0000 
  6 C       -2.6550    -4.2000    -0.1060 C.3   1 <1>   0.0000 
  7 H       -2.1920    -4.8320     0.6630 H     1 <1>   0.0000 
  8 H       -2.0470    -4.3290    -1.0100 H     1 <1>   0.0000 
  9 C       -2.6280    -2.7440     0.3870 C.3   1 <1>   0.0610 
 10 H       -2.4760    -2.7260     1.4750 H     1 <1>   0.0000 
 11 C       -1.4660    -1.9960    -0.2350 C.2   1 <1>   0.6590 
 12 O       -1.5640    -1.0730    -1.0310 O.2   1 <1>  -0.5700 
 13 O       -0.2870    -2.5010     0.2320 O.3   1 <1>  -0.4300 
 14 C        0.8780    -1.8570    -0.2960 C.3   1 <1>   0.2800 
 15 H        0.8680    -0.7960    -0.0260 H     1 <1>   0.0000 
 16 H        0.8960    -1.9620    -1.3870 H     1 <1>   0.0000 
 17 C        2.1000    -2.5270     0.3020 C.3   1 <1>   0.0000 
 18 H        2.1120    -3.5950     0.0590 H     1 <1>   0.0000 
 19 H        2.0850    -2.4500     1.3940 H     1 <1>   0.0000 
 20 H        3.0190    -2.0690    -0.0730 H     1 <1>   0.0000 
 21 C       -3.9540    -2.0390     0.0930 C.3   1 <1>   0.0000 
 22 H       -4.0930    -1.9470    -0.9930 H     1 <1>   0.0000 
 23 H       -3.9420    -1.0160     0.4870 H     1 <1>   0.0000 
 24 C       -5.1330    -2.8080     0.6910 C.3   1 <1>   0.2700 
 25 H       -6.0480    -2.5160     0.1620 H     1 <1>   0.0000 
 26 H       -5.2690    -2.5140     1.7380 H     1 <1>   0.0000 
@<TRIPOS>BOND
  1   1   2  1   
  2   2   3  1   
  3   2  24  1   
  4   3   4  1   
  5   3   5  1   
  6   3   6  1   
  7   6   7  1   
  8   6   8  1   
  9   6   9  1   
 10   9  10  1   
 11   9  11  1   
 12   9  21  1   
 13  11  12  2   
 14  11  13  1   
 15  13  14  1   
 16  14  15  1   
 17  14  16  1   
 18  14  17  1   
 19  17  18  1   
 20  17  19  1   
 21  17  20  1   
 22  21  22  1   
 23  21  23  1   
 24  21  24  1   
 25  24  25  1   
 26  24  26  1   
@<TRIPOS>SUBSTRUCTURE
  1 ****   9 GROUP 4 **** **** 0

# MOE 2022.02 (io_trps.svl 2020.11)

@<TRIPOS>MOLECULE
SEL043
19 20 1 0 0 
SMALL
USER_CHARGES


@<TRIPOS>ATOM
  1 H        0.0150    -2.0660    -0.9960 H     1 <1>   0.4000 
  2 O        0.2970    -1.1590    -1.2070 O.3   1 <1>  -0.6800 
  3 C        1.0580    -0.7060    -0.1140 C.3   1 <1>   0.6820 
  4 O        0.1810    -0.2050     0.8660 O.3   1 <1>  -0.6800 
  5 H       -0.1190    -0.9670     1.3900 H     1 <1>   0.4000 
  6 C        2.1310     0.3340    -0.5340 C.2   1 <1>   0.4230 
  7 O        1.9790     1.4320    -1.0430 O.2   1 <1>  -0.5700 
  8 C        3.4510    -0.2110    -0.2160 C.ar  1 <1>   0.0860 
  9 C        4.6870     0.3760    -0.4230 C.ar  1 <1>  -0.1500 
 10 H        4.7710     1.3610    -0.8720 H     1 <1>   0.1500 
 11 C        5.8200    -0.3440    -0.0350 C.ar  1 <1>  -0.1500 
 12 H        6.8100     0.0860    -0.1820 H     1 <1>   0.1500 
 13 C        5.6990    -1.6210     0.5470 C.ar  1 <1>  -0.1500 
 14 H        6.5960    -2.1640     0.8420 H     1 <1>   0.1500 
 15 C        4.4420    -2.1990     0.7480 C.ar  1 <1>  -0.1500 
 16 H        4.3400    -3.1830     1.1960 H     1 <1>   0.1500 
 17 C        3.3330    -1.4690     0.3560 C.ar  1 <1>   0.0860 
 18 C        1.9270    -1.8450     0.4570 C.2   1 <1>   0.4230 
 19 O        1.5140    -2.8950     0.9210 O.2   1 <1>  -0.5700 
@<TRIPOS>BOND
  1   1   2  1   
  2   2   3  1   
  3   3   4  1   
  4   3   6  1   
  5   3  18  1   
  6   4   5  1   
  7   6   7  2   
  8   6   8  1   
  9   8   9  ar  
 10   8  17  ar  
 11   9  10  1   
 12   9  11  ar  
 13  11  12  1   
 14  11  13  ar  
 15  13  14  1   
 16  13  15  ar  
 17  15  16  1   
 18  15  17  ar  
 19  17  18  1   
 20  18  19  2   
@<TRIPOS>SUBSTRUCTURE
  1 ****  17 GROUP 4 **** **** 0

# MOE 2022.02 (io_trps.svl 2020.11)

@<TRIPOS>MOLECULE
SEL044
29 31 1 0 0 
SMALL
USER_CHARGES


@<TRIPOS>ATOM
  1 H       -5.3060     0.9690    -1.1840 H     1 <1>   0.1500 
  2 C       -4.7400     1.7280    -0.6620 C.2   1 <1>  -0.1100 
  3 S       -5.5360     2.9370     0.2290 S.3   1 <1>  -0.0800 
  4 C       -4.0490     3.6910     0.6770 C.ar  1 <1>   0.0400 
  5 C       -3.9190     4.8600     1.4480 C.ar  1 <1>  -0.1500 
  6 H       -4.7970     5.3780     1.8230 H     1 <1>   0.1500 
  7 C       -2.6450     5.3440     1.7130 C.ar  1 <1>  -0.1500 
  8 H       -2.5210     6.2470     2.3060 H     1 <1>   0.1500 
  9 C       -1.5280     4.6710     1.2350 C.ar  1 <1>  -0.1500 
 10 H       -0.5460     5.0610     1.4930 H     1 <1>   0.1500 
 11 C       -1.6220     3.4850     0.4730 C.ar  1 <1>   0.1000 
 12 N       -0.4620     2.8490     0.0640 N.pl3 1 <1>  -0.8380 
 13 C       -0.2710     1.4060     0.2280 C.3   1 <1>   0.3690 
 14 H       -1.0360     0.9650     0.8780 H     1 <1>   0.0000 
 15 H       -0.3380     0.9180    -0.7520 H     1 <1>   0.0000 
 16 C        1.1130     1.1150     0.8560 C.3   1 <1>   0.2700 
 17 H        1.1100     1.4430     1.9030 H     1 <1>   0.0000 
 18 H        1.2810     0.0330     0.8600 H     1 <1>   0.0000 
 19 N        2.2370     1.7650     0.1530 N.3   1 <1>  -0.9000 
 20 H        3.0940     1.6070     0.6820 H     1 <1>   0.3600 
 21 C        1.9840     3.2180     0.0720 C.3   1 <1>   0.2700 
 22 H        2.0180     3.6460     1.0820 H     1 <1>   0.0000 
 23 H        2.7940     3.6820    -0.5010 H     1 <1>   0.0000 
 24 C        0.6340     3.5710    -0.5900 C.3   1 <1>   0.3690 
 25 H        0.4940     4.6580    -0.5670 H     1 <1>   0.0000 
 26 H        0.6590     3.2820    -1.6480 H     1 <1>   0.0000 
 27 C       -2.9380     3.0000     0.1790 C.ar  1 <1>   0.0000 
 28 C       -3.3750     1.8770    -0.6180 C.2   1 <1>  -0.1500 
 29 H       -2.7020     1.2130    -1.1430 H     1 <1>   0.1500 
@<TRIPOS>BOND
  1   1   2  1   
  2   2   3  1   
  3   2  28  2   
  4   3   4  1   
  5   4   5  ar  
  6   4  27  ar  
  7   5   6  1   
  8   5   7  ar  
  9   7   8  1   
 10   7   9  ar  
 11   9  10  1   
 12   9  11  ar  
 13  11  12  1   
 14  11  27  ar  
 15  12  13  1   
 16  12  24  1   
 17  13  14  1   
 18  13  15  1   
 19  13  16  1   
 20  16  17  1   
 21  16  18  1   
 22  16  19  1   
 23  19  20  1   
 24  19  21  1   
 25  21  22  1   
 26  21  23  1   
 27  21  24  1   
 28  24  25  1   
 29  24  26  1   
 30  27  28  1   
 31  28  29  1   
@<TRIPOS>SUBSTRUCTURE
  1 ****  11 GROUP 4 **** **** 0

# MOE 2022.02 (io_trps.svl 2020.11)

@<TRIPOS>MOLECULE
SEL045
15 15 1 0 0 
SMALL
USER_CHARGES


@<TRIPOS>ATOM
  1 H        5.7740    -2.5240    -0.0300 H     1 <1>   0.5000 
  2 O        4.8230    -2.7350     0.0650 O.3   1 <1>  -0.6500 
  3 C        4.2320    -1.5200     0.0200 C.2   1 <1>   0.8060 
  4 O        4.9130    -0.5140    -0.1140 O.2   1 <1>  -0.5700 
  5 C        2.7940    -1.5620     0.1430 C.2   1 <1>  -0.0860 
  6 C        1.9510    -0.4630     0.1280 C.2   1 <1>  -0.0400 
  7 C        2.1810     0.9920    -0.0040 C.3   1 <1>   0.1800 
  8 H        2.6730     1.2170    -0.9550 H     1 <1>   0.0000 
  9 H        2.8150     1.3550     0.8110 H     1 <1>   0.0000 
 10 H        1.2390     1.5490     0.0280 H     1 <1>   0.0000 
 11 O        0.6530    -0.8560     0.2660 O.3   1 <1>  -0.2800 
 12 C        0.6550    -2.2080     0.3710 C.2   1 <1>  -0.0100 
 13 H       -0.3160    -2.6700     0.4870 H     1 <1>   0.1500 
 14 C        1.9390    -2.6920     0.3010 C.2   1 <1>  -0.1500 
 15 H        2.2340    -3.7310     0.3570 H     1 <1>   0.1500 
@<TRIPOS>BOND
  1   1   2  1   
  2   2   3  1   
  3   3   4  2   
  4   3   5  1   
  5   5   6  2   
  6   5  14  1   
  7   6   7  1   
  8   6  11  1   
  9   7   8  1   
 10   7   9  1   
 11   7  10  1   
 12  11  12  1   
 13  12  13  1   
 14  12  14  2   
 15  14  15  1   
@<TRIPOS>SUBSTRUCTURE
  1 ****   5 GROUP 4 **** **** 0

# MOE 2022.02 (io_trps.svl 2020.11)

@<TRIPOS>MOLECULE
SEL046
20 20 1 0 0 
SMALL
USER_CHARGES


@<TRIPOS>ATOM
  1 H        0.3190     1.3060    -0.1170 H     1 <1>   0.4500 
  2 O        1.2270     0.9640    -0.0980 O.3   1 <1>  -0.5320 
  3 C        1.1840    -0.4010    -0.0310 C.ar  1 <1>   0.0820 
  4 C       -0.0490    -1.0550     0.0000 C.ar  1 <1>  -0.1500 
  5 H       -0.9810    -0.4990    -0.0240 H     1 <1>   0.1500 
  6 C       -0.0910    -2.4450     0.0610 C.ar  1 <1>  -0.1500 
  7 H       -1.0460    -2.9620     0.0850 H     1 <1>   0.1500 
  8 C        1.0970    -3.1720     0.0890 C.ar  1 <1>  -0.1500 
  9 H        1.0660    -4.2580     0.1330 H     1 <1>   0.1500 
 10 C        2.3290    -2.5120     0.0580 C.ar  1 <1>  -0.1500 
 11 H        3.2290    -3.1190     0.0770 H     1 <1>   0.1500 
 12 C        2.3940    -1.1110     0.0040 C.ar  1 <1>  -0.1440 
 13 C        3.7000    -0.3460    -0.0410 C.3   1 <1>   0.1440 
 14 H        3.7650     0.1760    -1.0050 H     1 <1>   0.0000 
 15 H        3.6760     0.4370     0.7290 H     1 <1>   0.0000 
 16 C        4.9840    -1.1490     0.1580 C.3   1 <1>   0.2800 
 17 H        4.9790    -1.6650     1.1240 H     1 <1>   0.0000 
 18 H        5.1140    -1.8890    -0.6390 H     1 <1>   0.0000 
 19 O        6.1070    -0.2720     0.1300 O.3   1 <1>  -0.6800 
 20 H        6.8980    -0.8190     0.2750 H     1 <1>   0.4000 
@<TRIPOS>BOND
  1   1   2  1   
  2   2   3  1   
  3   3   4  ar  
  4   3  12  ar  
  5   4   5  1   
  6   4   6  ar  
  7   6   7  1   
  8   6   8  ar  
  9   8   9  1   
 10   8  10  ar  
 11  10  11  1   
 12  10  12  ar  
 13  12  13  1   
 14  13  14  1   
 15  13  15  1   
 16  13  16  1   
 17  16  17  1   
 18  16  18  1   
 19  16  19  1   
 20  19  20  1   
@<TRIPOS>SUBSTRUCTURE
  1 ****  12 GROUP 4 **** **** 0

# MOE 2022.02 (io_trps.svl 2020.11)

@<TRIPOS>MOLECULE
SEL047
19 19 1 0 0 
SMALL
USER_CHARGES


@<TRIPOS>ATOM
  1 H       -1.1530    -0.7180    -0.0800 H     1 <1>   0.1500 
  2 C       -0.6640     0.2500     0.0120 C.ar  1 <1>   0.1600 
  3 N        0.6810     0.1930     0.1440 N.ar  1 <1>  -0.6200 
  4 C        1.3690     1.3730     0.2370 C.ar  1 <1>   0.1660 
  5 C        2.8730     1.2600     0.4120 C.3   1 <1>   0.4140 
  6 H        3.0890     1.2710     1.4860 H     1 <1>   0.0000 
  7 H        3.3900     2.1030    -0.0560 H     1 <1>   0.0000 
  8 N        3.4220     0.0330    -0.1820 N.3   1 <1>  -0.9900 
  9 H        2.7210    -0.7000    -0.0390 H     1 <1>   0.3600 
 10 H        4.2480    -0.2510     0.3380 H     1 <1>   0.3600 
 11 C        0.7140     2.6060     0.2510 C.ar  1 <1>   0.1770 
 12 CL       1.5390     4.1070     0.4420 Cl    1 <1>  -0.1770 
 13 C       -0.6750     2.6290     0.1180 C.ar  1 <1>  -0.1500 
 14 H       -1.2050     3.5800     0.1140 H     1 <1>   0.1500 
 15 C       -1.3880     1.4310    -0.0060 C.ar  1 <1>  -0.1440 
 16 C       -2.8740     1.3890    -0.1720 C.3   1 <1>   1.1640 
 17 F       -3.4660     0.4610     0.6290 F     1 <1>  -0.3400 
 18 F       -3.4820     2.5720     0.1180 F     1 <1>  -0.3400 
 19 F       -3.2450     1.0780    -1.4430 F     1 <1>  -0.3400 
@<TRIPOS>BOND
  1   1   2  1   
  2   2   3  ar  
  3   2  15  ar  
  4   3   4  ar  
  5   4   5  1   
  6   4  11  ar  
  7   5   6  1   
  8   5   7  1   
  9   5   8  1   
 10   8   9  1   
 11   8  10  1   
 12  11  12  1   
 13  11  13  ar  
 14  13  14  1   
 15  13  15  ar  
 16  15  16  1   
 17  16  17  1   
 18  16  18  1   
 19  16  19  1   
@<TRIPOS>SUBSTRUCTURE
  1 ****  15 GROUP 4 **** **** 0

# MOE 2022.02 (io_trps.svl 2020.11)

@<TRIPOS>MOLECULE
SEL048
20 21 1 0 0 
SMALL
USER_CHARGES


@<TRIPOS>ATOM
  1 H        2.5190    -1.3510     0.1530 H     1 <1>   0.1500 
  2 C        1.5940    -1.9150     0.1410 C.ar  1 <1>   0.1600 
  3 N        0.4560    -1.1890     0.1010 N.ar  1 <1>  -0.6200 
  4 C       -0.7010    -1.9000     0.0810 C.ar  1 <1>   0.1660 
  5 C       -0.7060    -3.2990     0.1200 C.ar  1 <1>   0.1660 
  6 N        0.4470    -4.0170     0.1540 N.ar  1 <1>  -0.6200 
  7 C        1.5890    -3.2970     0.1680 C.ar  1 <1>   0.1600 
  8 H        2.5100    -3.8670     0.2000 H     1 <1>   0.1500 
  9 C       -1.9870    -4.0850     0.0540 C.3   1 <1>   0.1440 
 10 H       -2.0870    -4.4760    -0.9660 H     1 <1>   0.0000 
 11 H       -1.9250    -4.9450     0.7300 H     1 <1>   0.0000 
 12 C       -3.2230    -3.2580     0.4010 C.3   1 <1>   0.0000 
 13 H       -3.2590    -3.0760     1.4830 H     1 <1>   0.0000 
 14 H       -4.1270    -3.8180     0.1380 H     1 <1>   0.0000 
 15 C       -3.1960    -1.9240    -0.3380 C.3   1 <1>   0.0000 
 16 H       -4.1110    -1.3580    -0.1310 H     1 <1>   0.0000 
 17 H       -3.1670    -2.1050    -1.4200 H     1 <1>   0.0000 
 18 C       -1.9790    -1.1070     0.0860 C.3   1 <1>   0.1440 
 19 H       -1.8760    -0.2380    -0.5740 H     1 <1>   0.0000 
 20 H       -2.1330    -0.7270     1.1040 H     1 <1>   0.0000 
@<TRIPOS>BOND
  1   1   2  1   
  2   2   3  ar  
  3   2   7  ar  
  4   3   4  ar  
  5   4   5  ar  
  6   4  18  1   
  7   5   6  ar  
  8   5   9  1   
  9   6   7  ar  
 10   7   8  1   
 11   9  10  1   
 12   9  11  1   
 13   9  12  1   
 14  12  13  1   
 15  12  14  1   
 16  12  15  1   
 17  15  16  1   
 18  15  17  1   
 19  15  18  1   
 20  18  19  1   
 21  18  20  1   
@<TRIPOS>SUBSTRUCTURE
  1 ****   4 GROUP 4 **** **** 0

# MOE 2022.02 (io_trps.svl 2020.11)

@<TRIPOS>MOLECULE
SEL049
16 16 1 0 0 
SMALL
USER_CHARGES


@<TRIPOS>ATOM
  1 H        6.4340     0.7650    -1.2250 H     1 <1>   0.5000 
  2 O        5.5210     0.4280    -1.3330 O.3   1 <1>  -0.6840 
  3 S        4.9440     0.0760     0.1320 S.o2  1 <1>   1.4930 
  4 O        5.4050    -1.2570     0.4530 O.2   1 <1>  -0.6500 
  5 O        5.2750     1.2040     0.9760 O.2   1 <1>  -0.6500 
  6 C        3.1880     0.0400    -0.0890 C.ar  1 <1>  -0.0090 
  7 C        2.4930     1.2470    -0.2130 C.ar  1 <1>  -0.1500 
  8 H        3.0200     2.1980    -0.1830 H     1 <1>   0.1500 
  9 C        1.1080     1.2280    -0.3720 C.ar  1 <1>  -0.1500 
 10 H        0.5570     2.1600    -0.4710 H     1 <1>   0.1500 
 11 C        0.4250     0.0100    -0.4020 C.ar  1 <1>  -0.1500 
 12 H       -0.6550    -0.0030    -0.5260 H     1 <1>   0.1500 
 13 C        1.1240    -1.1920    -0.2710 C.ar  1 <1>  -0.1500 
 14 H        0.5860    -2.1370    -0.2920 H     1 <1>   0.1500 
 15 C        2.5090    -1.1810    -0.1100 C.ar  1 <1>  -0.1500 
 16 H        3.0460    -2.1220    -0.0060 H     1 <1>   0.1500 
@<TRIPOS>BOND
  1   1   2  1   
  2   2   3  1   
  3   3   4  2   
  4   3   5  2   
  5   3   6  1   
  6   6   7  ar  
  7   6  15  ar  
  8   7   8  1   
  9   7   9  ar  
 10   9  10  1   
 11   9  11  ar  
 12  11  12  1   
 13  11  13  ar  
 14  13  14  1   
 15  13  15  ar  
 16  15  16  1   
@<TRIPOS>SUBSTRUCTURE
  1 ****   6 GROUP 4 **** **** 0

# MOE 2022.02 (io_trps.svl 2020.11)

@<TRIPOS>MOLECULE
SEL050
17 17 1 0 0 
SMALL
USER_CHARGES


@<TRIPOS>ATOM
  1 H        6.2830    -0.8780     0.1950 H     1 <1>   0.4000 
  2 N        5.9020     0.0490     0.3750 N.2   1 <1>  -0.8500 
  3 C        4.6290     0.0430     0.1850 C.2   1 <1>   0.7110 
  4 N        4.0080     1.2380     0.3970 N.2   1 <1>  -0.6610 
  5 C        2.7250     1.2510     0.2110 C.2   1 <1>   0.3890 
  6 C        1.9560     2.5220     0.4210 C.3   1 <1>   0.0610 
  7 H        2.6310     3.3280     0.7240 H     1 <1>   0.0000 
  8 H        1.4610     2.8150    -0.5090 H     1 <1>   0.0000 
  9 H        1.2110     2.3790     1.2070 H     1 <1>   0.0000 
 10 C        1.9630     0.0020    -0.2200 C.2   1 <1>   0.3890 
 11 C        0.4790     0.0920    -0.4150 C.3   1 <1>   0.0610 
 12 H        0.2500     0.8300    -1.1890 H     1 <1>   0.0000 
 13 H       -0.0020     0.3790     0.5230 H     1 <1>   0.0000 
 14 H        0.0790    -0.8770    -0.7290 H     1 <1>   0.0000 
 15 N        2.5800    -1.1250    -0.4150 N.2   1 <1>  -0.4920 
 16 N        3.9250    -1.0670    -0.2020 N.pl3 1 <1>  -0.4080 
 17 H        4.4470    -1.9250    -0.3430 H     1 <1>   0.4000 
@<TRIPOS>BOND
  1   1   2  1   
  2   2   3  2   
  3   3   4  1   
  4   3  16  1   
  5   4   5  2   
  6   5   6  1   
  7   5  10  1   
  8   6   7  1   
  9   6   8  1   
 10   6   9  1   
 11  10  11  1   
 12  10  15  2   
 13  11  12  1   
 14  11  13  1   
 15  11  14  1   
 16  15  16  1   
 17  16  17  1   
@<TRIPOS>SUBSTRUCTURE
  1 ****   5 GROUP 4 **** **** 0

# MOE 2022.02 (io_trps.svl 2020.11)

@<TRIPOS>MOLECULE
SEL051
22 22 1 0 0 
SMALL
USER_CHARGES


@<TRIPOS>ATOM
  1 H        0.8200     3.4230    -0.9380 H     1 <1>   0.5000 
  2 O        1.1550     2.5060    -1.0310 O.3   1 <1>  -0.6500 
  3 C        1.5370     2.1890     0.2240 C.2   1 <1>   0.6590 
  4 O        1.4280     3.0230     1.1130 O.2   1 <1>  -0.5700 
  5 C        2.1590     0.8150     0.3720 C.3   1 <1>   0.2040 
  6 H        2.0400     0.5580     1.4340 H     1 <1>   0.0000 
  7 C        3.6410     0.8420     0.0310 C.ar  1 <1>  -0.1440 
  8 C        4.5940     0.7250     1.0550 C.ar  1 <1>  -0.1500 
  9 H        4.2810     0.6170     2.0920 H     1 <1>   0.1500 
 10 C        5.9590     0.7500     0.7630 C.ar  1 <1>  -0.1500 
 11 H        6.6870     0.6590     1.5650 H     1 <1>   0.1500 
 12 C        6.3890     0.8960    -0.5540 C.ar  1 <1>  -0.1500 
 13 H        7.4520     0.9180    -0.7790 H     1 <1>   0.1500 
 14 C        5.4560     1.0210    -1.5800 C.ar  1 <1>  -0.1500 
 15 H        5.7910     1.1430    -2.6060 H     1 <1>   0.1500 
 16 C        4.0900     0.9970    -1.2900 C.ar  1 <1>  -0.1500 
 17 H        3.3810     1.1100    -2.1080 H     1 <1>   0.1500 
 18 C        1.3940    -0.2490    -0.4250 C.3   1 <1>   0.2800 
 19 H        1.1940     0.0540    -1.4580 H     1 <1>   0.0000 
 20 H        1.9610    -1.1870    -0.4530 H     1 <1>   0.0000 
 21 O        0.1460    -0.5350     0.2070 O.3   1 <1>  -0.6800 
 22 H       -0.2950    -1.2170    -0.3300 H     1 <1>   0.4000 
@<TRIPOS>BOND
  1   1   2  1   
  2   2   3  1   
  3   3   4  2   
  4   3   5  1   
  5   5   6  1   
  6   5   7  1   
  7   5  18  1   
  8   7   8  ar  
  9   7  16  ar  
 10   8   9  1   
 11   8  10  ar  
 12  10  11  1   
 13  10  12  ar  
 14  12  13  1   
 15  12  14  ar  
 16  14  15  1   
 17  14  16  ar  
 18  16  17  1   
 19  18  19  1   
 20  18  20  1   
 21  18  21  1   
 22  21  22  1   
@<TRIPOS>SUBSTRUCTURE
  1 ****   7 GROUP 4 **** **** 0

# MOE 2022.02 (io_trps.svl 2020.11)

@<TRIPOS>MOLECULE
SEL052
28 28 1 0 0 
SMALL
USER_CHARGES


@<TRIPOS>ATOM
  1 H       -6.2950    -2.9860     1.0390 H     1 <1>   0.1500 
  2 C       -5.5490    -2.4530     0.4590 C.ar  1 <1>  -0.1500 
  3 C       -4.2390    -2.9500     0.4540 C.ar  1 <1>  -0.1500 
  4 H       -4.0260    -3.8470     1.0300 H     1 <1>   0.1500 
  5 C       -3.2270    -2.3100    -0.2720 C.ar  1 <1>   0.1170 
  6 N       -1.9390    -2.8810    -0.2250 N.am  1 <1>  -0.5470 
  7 H       -1.8510    -3.7230     0.3360 H     1 <1>   0.3700 
  8 C       -0.7900    -2.4200    -0.8410 C.2   1 <1>   0.5690 
  9 O       -0.6640    -1.3930    -1.5000 O.2   1 <1>  -0.5700 
 10 C        0.3950    -3.3180    -0.6070 C.3   1 <1>   0.1220 
 11 H        0.0950    -4.3690    -0.6920 H     1 <1>   0.0000 
 12 H        1.1510    -3.1440    -1.3800 H     1 <1>   0.0000 
 13 C        1.0010    -3.0860     0.7470 C.2   1 <1>   0.4480 
 14 O        0.7440    -3.8390     1.6880 O.2   1 <1>  -0.5700 
 15 C        1.8790    -1.8750     0.9180 C.3   1 <1>   0.0610 
 16 H        2.3290    -1.8860     1.9150 H     1 <1>   0.0000 
 17 H        1.2820    -0.9670     0.8070 H     1 <1>   0.0000 
 18 H        2.6800    -1.8930     0.1750 H     1 <1>   0.0000 
 19 C       -3.5470    -1.1620    -0.9950 C.ar  1 <1>  -0.1500 
 20 H       -2.8070    -0.6240    -1.5780 H     1 <1>   0.1500 
 21 C       -4.8570    -0.6650    -0.9880 C.ar  1 <1>  -0.1500 
 22 H       -5.0890     0.2320    -1.5570 H     1 <1>   0.1500 
 23 C       -5.8630    -1.3050    -0.2640 C.ar  1 <1>   0.0820 
 24 O       -7.0930    -0.7140    -0.3460 O.3   1 <1>  -0.3630 
 25 C       -8.1530    -1.3300     0.3750 C.3   1 <1>   0.2800 
 26 H       -9.0590    -0.7400     0.2070 H     1 <1>   0.0000 
 27 H       -7.9500    -1.3300     1.4520 H     1 <1>   0.0000 
 28 H       -8.3430    -2.3440     0.0090 H     1 <1>   0.0000 
@<TRIPOS>BOND
  1   1   2  1   
  2   2   3  ar  
  3   2  23  ar  
  4   3   4  1   
  5   3   5  ar  
  6   5   6  1   
  7   5  19  ar  
  8   6   7  1   
  9   6   8  am  
 10   8   9  2   
 11   8  10  1   
 12  10  11  1   
 13  10  12  1   
 14  10  13  1   
 15  13  14  2   
 16  13  15  1   
 17  15  16  1   
 18  15  17  1   
 19  15  18  1   
 20  19  20  1   
 21  19  21  ar  
 22  21  22  1   
 23  21  23  ar  
 24  23  24  1   
 25  24  25  1   
 26  25  26  1   
 27  25  27  1   
 28  25  28  1   
@<TRIPOS>SUBSTRUCTURE
  1 ****   5 GROUP 4 **** **** 0

# MOE 2022.02 (io_trps.svl 2020.11)

@<TRIPOS>MOLECULE
SEL053
13 14 1 0 0 
SMALL
USER_CHARGES


@<TRIPOS>ATOM
  1 H       -4.0590    -3.2090    -0.0040 H     1 <1>   0.1500 
  2 C       -3.5180    -2.2660     0.0010 C.ar  1 <1>   0.4700 
  3 N       -4.2760    -1.1520     0.0160 N.ar  1 <1>  -0.6200 
  4 C       -3.6170     0.0230     0.0220 C.ar  1 <1>   0.4870 
  5 CL      -4.5130     1.4610     0.0400 Cl    1 <1>  -0.1770 
  6 C       -2.2320     0.0880     0.0140 C.ar  1 <1>   0.2270 
  7 N       -1.2970     1.1050     0.0180 N.2   1 <1>  -0.5650 
  8 C       -0.1300     0.4960     0.0050 C.2   1 <1>   0.0370 
  9 H        0.8370     0.9830     0.0020 H     1 <1>   0.1500 
 10 N       -0.2640    -0.8650    -0.0060 N.pl3 1 <1>   0.0330 
 11 H        0.4770    -1.5510    -0.0160 H     1 <1>   0.2700 
 12 C       -1.6000    -1.1450    -0.0010 C.ar  1 <1>   0.1050 
 13 N       -2.1710    -2.3590    -0.0080 N.ar  1 <1>  -0.5670 
@<TRIPOS>BOND
  1   1   2  1   
  2   2   3  ar  
  3   2  13  ar  
  4   3   4  ar  
  5   4   5  1   
  6   4   6  ar  
  7   6   7  1   
  8   6  12  ar  
  9   7   8  2   
 10   8   9  1   
 11   8  10  1   
 12  10  11  1   
 13  10  12  1   
 14  12  13  ar  
@<TRIPOS>SUBSTRUCTURE
  1 ****   6 GROUP 4 **** **** 0

# MOE 2022.02 (io_trps.svl 2020.11)

@<TRIPOS>MOLECULE
SEL054
19 19 1 0 0 
SMALL
USER_CHARGES


@<TRIPOS>ATOM
  1 H        6.2540     0.5280    -0.7160 H     1 <1>   0.4000 
  2 O        5.2970     0.3930    -0.6190 O.3   1 <1>  -0.6800 
  3 C        4.7390     1.6660    -0.3140 C.3   1 <1>   0.4240 
  4 H        4.9860     2.3400    -1.1400 H     1 <1>   0.0000 
  5 H        5.2090     2.0250     0.6070 H     1 <1>   0.0000 
  6 C        3.2390     1.6170    -0.1270 C.ar  1 <1>  -0.1440 
  7 C        2.5480     0.3930    -0.1590 C.ar  1 <1>  -0.1500 
  8 H        3.0900    -0.5360    -0.3270 H     1 <1>   0.1500 
  9 C        1.1650     0.3390     0.0190 C.ar  1 <1>  -0.1500 
 10 H        0.6530    -0.6190    -0.0120 H     1 <1>   0.1500 
 11 C        0.4470     1.5090     0.2330 C.ar  1 <1>  -0.1500 
 12 H       -0.6300     1.4690     0.3710 H     1 <1>   0.1500 
 13 C        1.1110     2.7340     0.2720 C.ar  1 <1>  -0.1500 
 14 H        0.5320     3.6390     0.4410 H     1 <1>   0.1500 
 15 C        2.5040     2.8040     0.0990 C.ar  1 <1>  -0.1440 
 16 C        3.1760     4.1490     0.1470 C.3   1 <1>   0.1440 
 17 H        3.9620     4.1570     0.9090 H     1 <1>   0.0000 
 18 H        3.6090     4.3900    -0.8290 H     1 <1>   0.0000 
 19 H        2.4680     4.9440     0.4020 H     1 <1>   0.0000 
@<TRIPOS>BOND
  1   1   2  1   
  2   2   3  1   
  3   3   4  1   
  4   3   5  1   
  5   3   6  1   
  6   6   7  ar  
  7   6  15  ar  
  8   7   8  1   
  9   7   9  ar  
 10   9  10  1   
 11   9  11  ar  
 12  11  12  1   
 13  11  13  ar  
 14  13  14  1   
 15  13  15  ar  
 16  15  16  1   
 17  16  17  1   
 18  16  18  1   
 19  16  19  1   
@<TRIPOS>SUBSTRUCTURE
  1 ****   6 GROUP 4 **** **** 0

# MOE 2022.02 (io_trps.svl 2020.11)

@<TRIPOS>MOLECULE
SEL055
14 14 1 0 0 
SMALL
USER_CHARGES


@<TRIPOS>ATOM
  1 H        2.0450     2.1760     0.0020 H     1 <1>   0.4500 
  2 O        2.6780     1.4380     0.0000 O.3   1 <1>  -0.5320 
  3 C        1.9960     0.2530     0.0000 C.ar  1 <1>   0.0820 
  4 C        0.6000     0.2550     0.0010 C.ar  1 <1>  -0.1500 
  5 H        0.0380     1.1850     0.0020 H     1 <1>   0.1500 
  6 C       -0.0940    -0.9560     0.0010 C.ar  1 <1>  -0.1500 
  7 H       -1.1820    -0.9580     0.0010 H     1 <1>   0.1500 
  8 C        0.6040    -2.1630    -0.0010 C.ar  1 <1>  -0.1500 
  9 H        0.0600    -3.1060    -0.0010 H     1 <1>   0.1500 
 10 C        2.0000    -2.1630    -0.0010 C.ar  1 <1>  -0.1500 
 11 H        2.5340    -3.1110    -0.0020 H     1 <1>   0.1500 
 12 C        2.7060    -0.9520    -0.0010 C.ar  1 <1>   0.0730 
 13 C        4.1400    -0.9760    -0.0020 C.1   1 <1>   0.4840 
 14 N        5.2990    -1.0480    -0.0020 N.1   1 <1>  -0.5570 
@<TRIPOS>BOND
  1   1   2  1   
  2   2   3  1   
  3   3   4  ar  
  4   3  12  ar  
  5   4   5  1   
  6   4   6  ar  
  7   6   7  1   
  8   6   8  ar  
  9   8   9  1   
 10   8  10  ar  
 11  10  11  1   
 12  10  12  ar  
 13  12  13  1   
 14  13  14  3   
@<TRIPOS>SUBSTRUCTURE
  1 ****  12 GROUP 4 **** **** 0

# MOE 2022.02 (io_trps.svl 2020.11)

@<TRIPOS>MOLECULE
SEL056
15 15 1 0 0 
SMALL
USER_CHARGES


@<TRIPOS>ATOM
  1 H       -4.9980     3.5750     0.1770 H     1 <1>   0.1500 
  2 C       -4.0700     3.0170     0.0960 C.ar  1 <1>   0.1600 
  3 N       -3.0020     3.5870     0.6930 N.ar  1 <1>  -0.6200 
  4 C       -1.8290     2.9220     0.6080 C.ar  1 <1>   0.1600 
  5 H       -0.9940     3.4220     1.0950 H     1 <1>   0.1500 
  6 C       -1.6700     1.7000    -0.0390 C.ar  1 <1>  -0.1440 
  7 C       -0.3280     1.0240    -0.0960 C.3   1 <1>   0.3440 
  8 H        0.1740     1.1390     0.8730 H     1 <1>   0.0000 
  9 H       -0.4660    -0.0560    -0.2310 H     1 <1>   0.0000 
 10 C        0.5280     1.5510    -1.1680 C.1   1 <1>   0.3570 
 11 N        1.2210     1.9560    -2.0060 N.1   1 <1>  -0.5570 
 12 C       -2.7980     1.1450    -0.6520 C.ar  1 <1>  -0.1500 
 13 H       -2.7370     0.1990    -1.1850 H     1 <1>   0.1500 
 14 C       -4.0180     1.8120    -0.5830 C.ar  1 <1>  -0.1500 
 15 H       -4.9070     1.4020    -1.0480 H     1 <1>   0.1500 
@<TRIPOS>BOND
  1   1   2  1   
  2   2   3  ar  
  3   2  14  ar  
  4   3   4  ar  
  5   4   5  1   
  6   4   6  ar  
  7   6   7  1   
  8   6  12  ar  
  9   7   8  1   
 10   7   9  1   
 11   7  10  1   
 12  10  11  3   
 13  12  13  1   
 14  12  14  ar  
 15  14  15  1   
@<TRIPOS>SUBSTRUCTURE
  1 ****   6 GROUP 4 **** **** 0

# MOE 2022.02 (io_trps.svl 2020.11)

@<TRIPOS>MOLECULE
SEL057
20 21 1 0 0 
SMALL
USER_CHARGES


@<TRIPOS>ATOM
  1 H        0.6930    -2.6440     0.0120 H     1 <1>   0.4500 
  2 O        0.5210    -1.6900     0.0090 O.3   1 <1>  -0.5320 
  3 C        1.7130    -1.0210     0.0050 C.ar  1 <1>   0.0820 
  4 C        1.7130     0.3720    -0.0010 C.ar  1 <1>   0.0820 
  5 O        0.5220     1.0420    -0.0030 O.3   1 <1>  -0.5320 
  6 H        0.6940     1.9950    -0.0070 H     1 <1>   0.4500 
  7 C        2.9170     1.0740    -0.0050 C.ar  1 <1>  -0.1500 
  8 H        2.9140     2.1600    -0.0090 H     1 <1>   0.1500 
  9 C        4.1400     0.3830    -0.0030 C.ar  1 <1>   0.0000 
 10 C        5.3660     1.0690    -0.0070 C.ar  1 <1>  -0.1500 
 11 H        5.3890     2.1560    -0.0120 H     1 <1>   0.1500 
 12 C        6.5740     0.3710    -0.0060 C.ar  1 <1>  -0.1500 
 13 H        7.5150     0.9150    -0.0090 H     1 <1>   0.1500 
 14 C        6.5740    -1.0210    -0.0010 C.ar  1 <1>  -0.1500 
 15 H        7.5150    -1.5650     0.0000 H     1 <1>   0.1500 
 16 C        5.3660    -1.7190     0.0040 C.ar  1 <1>  -0.1500 
 17 H        5.3890    -2.8060     0.0080 H     1 <1>   0.1500 
 18 C        4.1400    -1.0330     0.0020 C.ar  1 <1>   0.0000 
 19 C        2.9170    -1.7240     0.0060 C.ar  1 <1>  -0.1500 
 20 H        2.9140    -2.8100     0.0110 H     1 <1>   0.1500 
@<TRIPOS>BOND
  1   1   2  1   
  2   2   3  1   
  3   3   4  ar  
  4   3  19  ar  
  5   4   5  1   
  6   4   7  ar  
  7   5   6  1   
  8   7   8  1   
  9   7   9  ar  
 10   9  10  ar  
 11   9  18  ar  
 12  10  11  1   
 13  10  12  ar  
 14  12  13  1   
 15  12  14  ar  
 16  14  15  1   
 17  14  16  ar  
 18  16  17  1   
 19  16  18  ar  
 20  18  19  ar  
 21  19  20  1   
@<TRIPOS>SUBSTRUCTURE
  1 ****   9 GROUP 4 **** **** 0

# MOE 2022.02 (io_trps.svl 2020.11)

@<TRIPOS>MOLECULE
SEL058
22 22 1 0 0 
SMALL
USER_CHARGES


@<TRIPOS>ATOM
  1 H       -7.0520    -1.2420     0.0090 H     1 <1>   0.1500 
  2 C       -6.0960    -1.7600     0.0060 C.ar  1 <1>  -0.1500 
  3 C       -4.9090    -1.0360    -0.0510 C.ar  1 <1>  -0.1500 
  4 H       -4.9390     0.0500    -0.0930 H     1 <1>   0.1500 
  5 C       -3.6770    -1.6980    -0.0550 C.ar  1 <1>  -0.1500 
  6 H       -2.7760    -1.0940    -0.1010 H     1 <1>   0.1500 
  7 C       -3.6180    -3.0970    -0.0010 C.ar  1 <1>  -0.1440 
  8 C       -2.3270    -3.8850    -0.0030 C.3   1 <1>   0.1440 
  9 H       -2.3160    -4.5100     0.9000 H     1 <1>   0.0000 
 10 H       -2.3500    -4.5620    -0.8670 H     1 <1>   0.0000 
 11 C       -1.0230    -3.0820    -0.0510 C.3   1 <1>   0.0000 
 12 H       -1.0030    -2.4520    -0.9500 H     1 <1>   0.0000 
 13 H       -0.9680    -2.4060     0.8130 H     1 <1>   0.0000 
 14 C        0.1950    -4.0070    -0.0510 C.3   1 <1>   0.2000 
 15 H        0.1510    -4.6800    -0.9150 H     1 <1>   0.0000 
 16 H        0.1860    -4.6350     0.8470 H     1 <1>   0.0000 
 17 C        1.4440    -3.2360    -0.0960 C.1   1 <1>   0.3570 
 18 N        2.4310    -2.6270    -0.1310 N.1   1 <1>  -0.5570 
 19 C       -4.8260    -3.8120     0.0560 C.ar  1 <1>  -0.1500 
 20 H       -4.8160    -4.9000     0.0980 H     1 <1>   0.1500 
 21 C       -6.0560    -3.1500     0.0600 C.ar  1 <1>  -0.1500 
 22 H       -6.9800    -3.7200     0.1040 H     1 <1>   0.1500 
@<TRIPOS>BOND
  1   1   2  1   
  2   2   3  ar  
  3   2  21  ar  
  4   3   4  1   
  5   3   5  ar  
  6   5   6  1   
  7   5   7  ar  
  8   7   8  1   
  9   7  19  ar  
 10   8   9  1   
 11   8  10  1   
 12   8  11  1   
 13  11  12  1   
 14  11  13  1   
 15  11  14  1   
 16  14  15  1   
 17  14  16  1   
 18  14  17  1   
 19  17  18  3   
 20  19  20  1   
 21  19  21  ar  
 22  21  22  1   
@<TRIPOS>SUBSTRUCTURE
  1 ****   7 GROUP 4 **** **** 0

# MOE 2022.02 (io_trps.svl 2020.11)

@<TRIPOS>MOLECULE
SEL059
22 21 1 0 0 
SMALL
USER_CHARGES


@<TRIPOS>ATOM
  1 H        2.3140    -1.9910     0.7070 H     1 <1>   0.3600 
  2 N        1.6770    -1.5450     0.0460 N.3   1 <1>  -0.9900 
  3 H        2.1500    -1.5930    -0.8600 H     1 <1>   0.3600 
  4 C        1.5370    -0.1120     0.4110 C.3   1 <1>   0.3310 
  5 H        1.1500    -0.0760     1.4360 H     1 <1>   0.0000 
  6 C        2.9220     0.5650     0.4170 C.2   1 <1>   0.6590 
  7 O        3.2930     1.3640     1.2680 O.2   1 <1>  -0.5700 
  8 O        3.6630     0.1710    -0.6620 O.3   1 <1>  -0.4300 
  9 C        4.9510     0.7820    -0.7330 C.3   1 <1>   0.2800 
 10 H        5.4530     0.4080    -1.6300 H     1 <1>   0.0000 
 11 H        5.5530     0.5090     0.1390 H     1 <1>   0.0000 
 12 H        4.8570     1.8690    -0.8170 H     1 <1>   0.0000 
 13 C        0.5700     0.6160    -0.5510 C.3   1 <1>   0.0000 
 14 H        0.9960     0.6130    -1.5640 H     1 <1>   0.0000 
 15 C       -0.8010    -0.0700    -0.6130 C.3   1 <1>   0.0000 
 16 H       -1.4830     0.4840    -1.2670 H     1 <1>   0.0000 
 17 H       -1.2590    -0.1280     0.3810 H     1 <1>   0.0000 
 18 H       -0.7240    -1.0850    -1.0140 H     1 <1>   0.0000 
 19 C        0.3700     2.0810    -0.1420 C.3   1 <1>   0.0000 
 20 H        1.3050     2.6460    -0.2020 H     1 <1>   0.0000 
 21 H       -0.0110     2.1580     0.8830 H     1 <1>   0.0000 
 22 H       -0.3470     2.5760    -0.8060 H     1 <1>   0.0000 
@<TRIPOS>BOND
  1   1   2  1   
  2   2   3  1   
  3   2   4  1   
  4   4   5  1   
  5   4   6  1   
  6   4  13  1   
  7   6   7  2   
  8   6   8  1   
  9   8   9  1   
 10   9  10  1   
 11   9  11  1   
 12   9  12  1   
 13  13  14  1   
 14  13  15  1   
 15  13  19  1   
 16  15  16  1   
 17  15  17  1   
 18  15  18  1   
 19  19  20  1   
 20  19  21  1   
 21  19  22  1   
@<TRIPOS>SUBSTRUCTURE
  1 ****   4 GROUP 4 **** **** 0

# MOE 2022.02 (io_trps.svl 2020.11)

@<TRIPOS>MOLECULE
SEL060
31 32 1 0 0 
SMALL
USER_CHARGES


@<TRIPOS>ATOM
  1 H       -1.1000    -2.6840    -0.0540 H     1 <1>   0.1500 
  2 C       -1.2660    -1.6130     0.0340 C.ar  1 <1>  -0.1500 
  3 C       -2.0370    -0.9650    -0.9350 C.ar  1 <1>  -0.1500 
  4 H       -2.4610    -1.5370    -1.7570 H     1 <1>   0.1500 
  5 C       -2.2560     0.4080    -0.8250 C.ar  1 <1>  -0.0090 
  6 S       -3.2560     1.2620    -2.0310 S.o2  1 <1>   1.4970 
  7 O       -3.7760     0.2710    -2.9550 O.2   1 <1>  -0.6500 
  8 O       -2.4210     2.3380    -2.5300 O.2   1 <1>  -0.6500 
  9 N       -4.4690     1.9080    -1.1790 N.2   1 <1>  -0.6380 
 10 C       -5.3180     1.1320    -0.6090 C.2   1 <1>   0.5860 
 11 O       -5.3010    -0.2460    -0.6260 O.3   1 <1>  -0.1290 
 12 N       -6.3810    -0.6460     0.1340 N.pl3 1 <1>  -0.5210 
 13 H       -6.6000    -1.6230     0.2840 H     1 <1>   0.4000 
 14 C       -7.0650     0.4240     0.6160 C.2   1 <1>  -0.0380 
 15 C       -8.2730     0.2410     1.4650 C.3   1 <1>   0.1380 
 16 H       -8.7080     1.1940     1.7790 H     1 <1>   0.0000 
 17 H       -8.0210    -0.3240     2.3680 H     1 <1>   0.0000 
 18 H       -9.0420    -0.3130     0.9170 H     1 <1>   0.0000 
 19 C       -6.4850     1.5600     0.2080 C.2   1 <1>  -0.1240 
 20 C       -6.8090     2.9840     0.4340 C.3   1 <1>   0.1380 
 21 H       -6.9790     3.4930    -0.5210 H     1 <1>   0.0000 
 22 H       -5.9840     3.4860     0.9500 H     1 <1>   0.0000 
 23 H       -7.7090     3.1110     1.0420 H     1 <1>   0.0000 
 24 C       -1.7040     1.1370     0.2310 C.ar  1 <1>  -0.1500 
 25 H       -1.8640     2.2100     0.3080 H     1 <1>   0.1500 
 26 C       -0.9350     0.4760     1.1910 C.ar  1 <1>  -0.1500 
 27 H       -0.5070     1.0470     2.0110 H     1 <1>   0.1500 
 28 C       -0.7110    -0.9020     1.1030 C.ar  1 <1>   0.1000 
 29 N        0.0470    -1.5520     2.0590 N.pl3 1 <1>  -0.9000 
 30 H        0.2100    -2.5470     2.0000 H     1 <1>   0.4000 
 31 H        0.4530    -1.0420     2.8320 H     1 <1>   0.4000 
@<TRIPOS>BOND
  1   1   2  1   
  2   2   3  ar  
  3   2  28  ar  
  4   3   4  1   
  5   3   5  ar  
  6   5   6  1   
  7   5  24  ar  
  8   6   7  2   
  9   6   8  2   
 10   6   9  1   
 11   9  10  2   
 12  10  11  1   
 13  10  19  1   
 14  11  12  1   
 15  12  13  1   
 16  12  14  1   
 17  14  15  1   
 18  14  19  2   
 19  15  16  1   
 20  15  17  1   
 21  15  18  1   
 22  19  20  1   
 23  20  21  1   
 24  20  22  1   
 25  20  23  1   
 26  24  25  1   
 27  24  26  ar  
 28  26  27  1   
 29  26  28  ar  
 30  28  29  1   
 31  29  30  1   
 32  29  31  1   
@<TRIPOS>SUBSTRUCTURE
  1 ****   5 GROUP 4 **** **** 0

# MOE 2022.02 (io_trps.svl 2020.11)

@<TRIPOS>MOLECULE
SEL061
22 22 1 0 0 
SMALL
USER_CHARGES


@<TRIPOS>ATOM
  1 H        0.2700     0.9560     1.2320 H     1 <1>   0.4500 
  2 O        0.5000     0.3360     0.5210 O.3   1 <1>  -0.5320 
  3 C        1.8440     0.4020     0.3020 C.ar  1 <1>   0.0820 
  4 C        2.3780    -0.4130    -0.6880 C.ar  1 <1>  -0.1500 
  5 H        1.7300    -1.0740    -1.2570 H     1 <1>   0.1500 
  6 C        3.7480    -0.3790    -0.9460 C.ar  1 <1>  -0.1500 
  7 H        4.1580    -1.0190    -1.7260 H     1 <1>   0.1500 
  8 C        4.5920     0.4730    -0.2150 C.ar  1 <1>  -0.1440 
  9 C        6.0840     0.5090    -0.4860 C.3   1 <1>   0.4240 
 10 H        6.5290     1.3580     0.0480 H     1 <1>   0.0000 
 11 O        6.3040     0.7430    -1.8790 O.3   1 <1>  -0.6800 
 12 H        5.5970     1.3350    -2.1870 H     1 <1>   0.4000 
 13 C        6.7810    -0.8000    -0.0340 C.3   1 <1>   0.2700 
 14 H        6.4810    -1.6270    -0.6880 H     1 <1>   0.0000 
 15 H        6.4700    -1.0520     0.9870 H     1 <1>   0.0000 
 16 N        8.2490    -0.7260    -0.0590 N.3   1 <1>  -0.9900 
 17 H        8.6370    -1.5860     0.3220 H     1 <1>   0.3600 
 18 H        8.5710     0.0370     0.5320 H     1 <1>   0.3600 
 19 C        4.0310     1.2880     0.7810 C.ar  1 <1>  -0.1500 
 20 H        4.6610     1.9570     1.3650 H     1 <1>   0.1500 
 21 C        2.6590     1.2530     1.0400 C.ar  1 <1>  -0.1500 
 22 H        2.2480     1.8930     1.8150 H     1 <1>   0.1500 
@<TRIPOS>BOND
  1   1   2  1   
  2   2   3  1   
  3   3   4  ar  
  4   3  21  ar  
  5   4   5  1   
  6   4   6  ar  
  7   6   7  1   
  8   6   8  ar  
  9   8   9  1   
 10   8  19  ar  
 11   9  10  1   
 12   9  11  1   
 13   9  13  1   
 14  11  12  1   
 15  13  14  1   
 16  13  15  1   
 17  13  16  1   
 18  16  17  1   
 19  16  18  1   
 20  19  20  1   
 21  19  21  ar  
 22  21  22  1   
@<TRIPOS>SUBSTRUCTURE
  1 ****   8 GROUP 4 **** **** 0

# MOE 2022.02 (io_trps.svl 2020.11)

@<TRIPOS>MOLECULE
SEL062
19 19 1 0 0 
SMALL
USER_CHARGES


@<TRIPOS>ATOM
  1 H       -5.4750     2.4680     0.0000 H     1 <1>   0.0000 
  2 C       -4.2750     2.4680     0.0000 C.ar  1 <1>   0.0000 
  3 C       -3.5250     3.7670     0.0000 C.ar  1 <1>   0.0000 
  4 H       -4.1250     4.8060     0.0000 H     1 <1>   0.0000 
  5 C       -2.0250     3.7670     0.0000 C.ar  1 <1>   0.0000 
  6 H       -1.4250     4.8060     0.0000 H     1 <1>   0.0000 
  7 C       -1.2750     2.4680     0.0000 C.ar  1 <1>   0.0000 
  8 P        0.2250     2.4680     0.0000 P.3   1 <1>   1.0000 
  9 H        1.0740     3.3170     0.0000 H     1 <1>   0.0000 
 10 O        0.2250     0.9680     0.0000 O.2   1 <1>   0.0000 
 11 O        0.2250     3.9680     0.0000 O.3   1 <1>  -1.0000 
 12 C        1.7250     2.4680     0.0000 C.3   1 <1>   0.0000 
 13 H        1.7250     1.2680     0.0000 H     1 <1>   0.0000 
 14 H        2.9250     2.4680     0.0000 H     1 <1>   0.0000 
 15 H        1.7250     3.6680     0.0000 H     1 <1>   0.0000 
 16 C       -2.0250     1.1690     0.0000 C.ar  1 <1>   0.0000 
 17 H       -1.4250     0.1300     0.0000 H     1 <1>   0.0000 
 18 C       -3.5250     1.1690     0.0000 C.ar  1 <1>   0.0000 
 19 H       -4.1250     0.1300     0.0000 H     1 <1>   0.0000 
@<TRIPOS>BOND
  1   1   2  1   
  2   2   3  ar  
  3   2  18  ar  
  4   3   4  1   
  5   3   5  ar  
  6   5   6  1   
  7   5   7  ar  
  8   7   8  1   
  9   7  16  ar  
 10   8   9  1   
 11   8  10  2   
 12   8  11  1   
 13   8  12  1   
 14  12  13  1   
 15  12  14  1   
 16  12  15  1   
 17  16  17  1   
 18  16  18  ar  
 19  18  19  1   
@<TRIPOS>SUBSTRUCTURE
  1 ****   7 GROUP 4 **** **** 0

# MOE 2022.02 (io_trps.svl 2020.11)

@<TRIPOS>MOLECULE
SEL063
24 25 1 0 0 
SMALL
USER_CHARGES


@<TRIPOS>ATOM
  1 H        0.8070     1.2200     0.7900 H     1 <1>   0.4500 
  2 O        1.6970     0.8450     0.7100 O.3   1 <1>  -0.5320 
  3 C        1.5980    -0.4190     0.2100 C.ar  1 <1>   0.0820 
  4 C        0.3590    -0.9800    -0.1000 C.ar  1 <1>  -0.1500 
  5 H       -0.5610    -0.4220     0.0500 H     1 <1>   0.1500 
  6 C        0.2870    -2.2850    -0.6130 C.ar  1 <1>  -0.1500 
  7 H       -0.6820    -2.7180    -0.8520 H     1 <1>   0.1500 
  8 C        1.4500    -3.0340    -0.8190 C.ar  1 <1>  -0.1500 
  9 H        1.3930    -4.0430    -1.2150 H     1 <1>   0.1500 
 10 C        2.6690    -2.4560    -0.5050 C.ar  1 <1>  -0.1440 
 11 C        2.7390    -1.1710     0.0020 C.ar  1 <1>   0.0820 
 12 O        4.0140    -0.7470     0.2630 O.3   1 <1>  -0.3630 
 13 C        4.8840    -1.8480    -0.1150 C.3   1 <1>   0.2800 
 14 C        5.8270    -1.3310    -1.2050 C.3   1 <1>   0.0000 
 15 H        6.5380    -2.1020    -1.5220 H     1 <1>   0.0000 
 16 H        5.2620    -0.9970    -2.0820 H     1 <1>   0.0000 
 17 H        6.3920    -0.4610    -0.8520 H     1 <1>   0.0000 
 18 C        5.6870    -2.2430     1.1280 C.3   1 <1>   0.0000 
 19 H        6.3880    -3.0560     0.9130 H     1 <1>   0.0000 
 20 H        5.0210    -2.5630     1.9380 H     1 <1>   0.0000 
 21 H        6.2530    -1.3880     1.5150 H     1 <1>   0.0000 
 22 C        4.0280    -3.0300    -0.6270 C.3   1 <1>   0.1440 
 23 H        4.2540    -3.2910    -1.6660 H     1 <1>   0.0000 
 24 H        4.1330    -3.9240    -0.0040 H     1 <1>   0.0000 
@<TRIPOS>BOND
  1   1   2  1   
  2   2   3  1   
  3   3   4  ar  
  4   3  11  ar  
  5   4   5  1   
  6   4   6  ar  
  7   6   7  1   
  8   6   8  ar  
  9   8   9  1   
 10   8  10  ar  
 11  10  11  ar  
 12  10  22  1   
 13  11  12  1   
 14  12  13  1   
 15  13  14  1   
 16  13  18  1   
 17  13  22  1   
 18  14  15  1   
 19  14  16  1   
 20  14  17  1   
 21  18  19  1   
 22  18  20  1   
 23  18  21  1   
 24  22  23  1   
 25  22  24  1   
@<TRIPOS>SUBSTRUCTURE
  1 ****  11 GROUP 4 **** **** 0

# MOE 2022.02 (io_trps.svl 2020.11)

@<TRIPOS>MOLECULE
SEL064
15 15 1 0 0 
SMALL
USER_CHARGES


@<TRIPOS>ATOM
  1 H       -4.9220     3.7270     0.0530 H     1 <1>   0.1500 
  2 C       -4.0280     3.1170     0.0190 C.2   1 <1>   0.0370 
  3 N       -2.7950     3.5630    -0.0290 N.2   1 <1>  -0.5650 
  4 C       -1.9820     2.4390    -0.0580 C.2   1 <1>   0.1410 
  5 C       -0.5190     2.4970    -0.1130 C.2   1 <1>   0.8060 
  6 O        0.1290     3.5380    -0.1440 O.2   1 <1>  -0.5700 
  7 O        0.0480     1.2500    -0.1240 O.3   1 <1>  -0.4300 
  8 C        1.4740     1.2640    -0.1750 C.3   1 <1>   0.2800 
  9 H        1.8230     0.2280    -0.1720 H     1 <1>   0.0000 
 10 H        1.8850     1.7680     0.7050 H     1 <1>   0.0000 
 11 H        1.8210     1.7430    -1.0960 H     1 <1>   0.0000 
 12 C       -2.7760     1.3040    -0.0260 C.2   1 <1>  -0.3020 
 13 H       -2.5330     0.2510    -0.0330 H     1 <1>   0.1500 
 14 N       -4.0670     1.7530     0.0230 N.pl3 1 <1>   0.0330 
 15 H       -4.9020     1.1850     0.0560 H     1 <1>   0.2700 
@<TRIPOS>BOND
  1   1   2  1   
  2   2   3  2   
  3   2  14  1   
  4   3   4  1   
  5   4   5  1   
  6   4  12  2   
  7   5   6  2   
  8   5   7  1   
  9   7   8  1   
 10   8   9  1   
 11   8  10  1   
 12   8  11  1   
 13  12  13  1   
 14  12  14  1   
 15  14  15  1   
@<TRIPOS>SUBSTRUCTURE
  1 ****   4 GROUP 4 **** **** 0

# MOE 2022.02 (io_trps.svl 2020.11)

@<TRIPOS>MOLECULE
SEL065
16 16 1 0 0 
SMALL
USER_CHARGES


@<TRIPOS>ATOM
  1 H       -4.8600     2.1670     0.1780 H     1 <1>   0.1500 
  2 C       -3.7780     2.2510     0.1380 C.ar  1 <1>   0.1600 
  3 N       -3.1080     1.0800     0.1550 N.ar  1 <1>  -0.6200 
  4 C       -1.7540     1.1500     0.1050 C.ar  1 <1>   0.1600 
  5 H       -1.2490     0.1860     0.1200 H     1 <1>   0.1500 
  6 C       -1.0390     2.3410     0.0390 C.ar  1 <1>   0.0860 
  7 C        0.4440     2.2860    -0.0100 C.2   1 <1>   0.4230 
  8 O        1.0150     1.1980    -0.0090 O.2   1 <1>  -0.5700 
  9 C        1.2190     3.5770    -0.0610 C.3   1 <1>   0.0610 
 10 H        2.2900     3.3520    -0.0750 H     1 <1>   0.0000 
 11 H        1.0110     4.1790     0.8280 H     1 <1>   0.0000 
 12 H        0.9750     4.1290    -0.9720 H     1 <1>   0.0000 
 13 C       -1.7640     3.5340     0.0220 C.ar  1 <1>  -0.1500 
 14 H       -1.2760     4.5020    -0.0290 H     1 <1>   0.1500 
 15 C       -3.1570     3.4890     0.0730 C.ar  1 <1>  -0.1500 
 16 H       -3.7470     4.3990     0.0610 H     1 <1>   0.1500 
@<TRIPOS>BOND
  1   1   2  1   
  2   2   3  ar  
  3   2  15  ar  
  4   3   4  ar  
  5   4   5  1   
  6   4   6  ar  
  7   6   7  1   
  8   6  13  ar  
  9   7   8  2   
 10   7   9  1   
 11   9  10  1   
 12   9  11  1   
 13   9  12  1   
 14  13  14  1   
 15  13  15  ar  
 16  15  16  1   
@<TRIPOS>SUBSTRUCTURE
  1 ****   6 GROUP 4 **** **** 0

# MOE 2022.02 (io_trps.svl 2020.11)

@<TRIPOS>MOLECULE
SEL066
19 20 1 0 0 
SMALL
USER_CHARGES


@<TRIPOS>ATOM
  1 H        0.2540     3.9130     0.0240 H     1 <1>   0.4500 
  2 O        1.1730     3.6080     0.0230 O.3   1 <1>  -0.5320 
  3 C        1.2330     2.2420     0.0150 C.ar  1 <1>   0.0820 
  4 C        0.0260     1.5360     0.0140 C.ar  1 <1>  -0.1500 
  5 H       -0.9280     2.0560     0.0200 H     1 <1>   0.1500 
  6 C        0.0360     0.1470     0.0060 C.ar  1 <1>  -0.1500 
  7 H       -0.9020    -0.4050     0.0050 H     1 <1>   0.1500 
  8 C        1.2480    -0.5400    -0.0010 C.ar  1 <1>  -0.1500 
  9 H        1.2270    -1.6290    -0.0070 H     1 <1>   0.1500 
 10 C        2.4700     0.1510     0.0000 C.ar  1 <1>   0.0000 
 11 C        3.6700    -0.5710    -0.0070 C.ar  1 <1>  -0.1500 
 12 H        3.6590    -1.6610    -0.0130 H     1 <1>   0.1500 
 13 C        4.8940     0.0790    -0.0070 C.ar  1 <1>  -0.1500 
 14 H        5.8230    -0.4840    -0.0130 H     1 <1>   0.1500 
 15 C        4.9170     1.4660     0.0000 C.ar  1 <1>  -0.0600 
 16 H        5.8160     2.0640     0.0010 H     1 <1>   0.1500 
 17 N        3.7550     2.2330     0.0080 N.ar  1 <1>   0.5710 
 18 O        3.8990     3.5010     0.0140 O.2   1 <1>  -0.7500 
 19 C        2.4870     1.5750     0.0080 C.ar  1 <1>   0.0900 
@<TRIPOS>BOND
  1   1   2  1   
  2   2   3  1   
  3   3   4  ar  
  4   3  19  ar  
  5   4   5  1   
  6   4   6  ar  
  7   6   7  1   
  8   6   8  ar  
  9   8   9  1   
 10   8  10  ar  
 11  10  11  ar  
 12  10  19  ar  
 13  11  12  1   
 14  11  13  ar  
 15  13  14  1   
 16  13  15  ar  
 17  15  16  1   
 18  15  17  ar  
 19  17  18  2   
 20  17  19  ar  
@<TRIPOS>SUBSTRUCTURE
  1 ****  19 GROUP 4 **** **** 0

# MOE 2022.02 (io_trps.svl 2020.11)

@<TRIPOS>MOLECULE
SEL067
19 19 1 0 0 
SMALL
USER_CHARGES


@<TRIPOS>ATOM
  1 H        0.1130    -2.2560     0.1800 H     1 <1>   0.4000 
  2 N        0.4410    -1.3000     0.0080 N.2   1 <1>  -0.8500 
  3 C        1.7210    -1.3370     0.0150 C.2   1 <1>   0.6500 
  4 O        2.3940    -2.5320     0.2310 O.3   1 <1>  -0.2270 
  5 C        3.7340    -2.1060     0.1550 C.2   1 <1>  -0.0730 
  6 H        4.4710    -2.8750     0.2940 H     1 <1>   0.1500 
  7 C        3.8730    -0.8030    -0.0790 C.2   1 <1>   0.1140 
  8 C        5.0800     0.0260    -0.2270 C.2   1 <1>   0.7060 
  9 O        5.0390     1.2280    -0.4450 O.2   1 <1>  -0.5700 
 10 O        6.1960    -0.7320    -0.0870 O.3   1 <1>  -0.4300 
 11 C        7.4200     0.0010    -0.2160 C.3   1 <1>   0.2800 
 12 H        7.4670     0.7820     0.5520 H     1 <1>   0.0000 
 13 H        7.4750     0.4580    -1.2110 H     1 <1>   0.0000 
 14 C        8.5720    -0.9680    -0.0330 C.3   1 <1>   0.0000 
 15 H        8.5260    -1.7670    -0.7800 H     1 <1>   0.0000 
 16 H        9.5330    -0.4540    -0.1240 H     1 <1>   0.0000 
 17 H        8.5190    -1.4480     0.9500 H     1 <1>   0.0000 
 18 N        2.6020    -0.3250    -0.1670 N.pl3 1 <1>  -0.5500 
 19 H        2.3730     0.6400    -0.3410 H     1 <1>   0.4000 
@<TRIPOS>BOND
  1   1   2  1   
  2   2   3  2   
  3   3   4  1   
  4   3  18  1   
  5   4   5  1   
  6   5   6  1   
  7   5   7  2   
  8   7   8  1   
  9   7  18  1   
 10   8   9  2   
 11   8  10  1   
 12  10  11  1   
 13  11  12  1   
 14  11  13  1   
 15  11  14  1   
 16  14  15  1   
 17  14  16  1   
 18  14  17  1   
 19  18  19  1   
@<TRIPOS>SUBSTRUCTURE
  1 ****   7 GROUP 4 **** **** 0

# MOE 2022.02 (io_trps.svl 2020.11)

@<TRIPOS>MOLECULE
SEL068
21 21 1 0 0 
SMALL
USER_CHARGES


@<TRIPOS>ATOM
  1 H       -1.4600    -1.5730     0.1200 H     1 <1>   0.5000 
  2 O       -0.5130    -1.3290     0.0600 O.3   1 <1>  -0.6500 
  3 C        0.1040    -2.5250     0.1320 C.2   1 <1>   0.8050 
  4 O       -0.5630    -3.5420     0.2430 O.2   1 <1>  -0.5700 
  5 C        1.5330    -2.4310     0.0670 C.2   1 <1>  -0.2370 
  6 C        2.4260    -3.4890     0.1280 C.2   1 <1>  -0.1500 
  7 H        2.1680    -4.5340     0.2340 H     1 <1>   0.1500 
  8 C        3.7100    -2.9230     0.0300 C.2   1 <1>   0.1080 
  9 C        5.0200    -3.6160     0.0540 C.3   1 <1>   0.1810 
 10 H        4.9310    -4.6330    -0.3420 H     1 <1>   0.0000 
 11 H        5.3960    -3.6780     1.0800 H     1 <1>   0.0000 
 12 H        5.7600    -3.0840    -0.5530 H     1 <1>   0.0000 
 13 N        3.6480    -1.5960    -0.0830 N.2   1 <1>  -0.7070 
 14 N        2.3270    -1.3110    -0.0670 N.pl3 1 <1>   0.3140 
 15 C        1.8940     0.0730    -0.1840 C.3   1 <1>   0.2560 
 16 H        1.3230     0.3040     0.7210 H     1 <1>   0.0000 
 17 H        1.2330     0.1250    -1.0560 H     1 <1>   0.0000 
 18 C        3.0040     1.1040    -0.3470 C.3   1 <1>   0.0000 
 19 H        3.5930     0.9150    -1.2500 H     1 <1>   0.0000 
 20 H        3.6830     1.0960     0.5120 H     1 <1>   0.0000 
 21 H        2.5750     2.1080    -0.4280 H     1 <1>   0.0000 
@<TRIPOS>BOND
  1   1   2  1   
  2   2   3  1   
  3   3   4  2   
  4   3   5  1   
  5   5   6  2   
  6   5  14  1   
  7   6   7  1   
  8   6   8  1   
  9   8   9  1   
 10   8  13  2   
 11   9  10  1   
 12   9  11  1   
 13   9  12  1   
 14  13  14  1   
 15  14  15  1   
 16  15  16  1   
 17  15  17  1   
 18  15  18  1   
 19  18  19  1   
 20  18  20  1   
 21  18  21  1   
@<TRIPOS>SUBSTRUCTURE
  1 ****   5 GROUP 4 **** **** 0

# MOE 2022.02 (io_trps.svl 2020.11)

@<TRIPOS>MOLECULE
SEL069
21 21 1 0 0 
SMALL
USER_CHARGES


@<TRIPOS>ATOM
  1 H        0.3350    -1.2160    -0.2560 H     1 <1>   0.0000 
  2 C        0.2150    -0.1310    -0.2060 C.3   1 <1>   0.3000 
  3 H       -0.3090     0.2070    -1.1050 H     1 <1>   0.0000 
  4 H       -0.3800     0.1180     0.6770 H     1 <1>   0.0000 
  5 N        1.4880     0.5640    -0.1200 N.am  1 <1>  -0.6600 
  6 C        2.6670    -0.1650    -0.1160 C.2   1 <1>   0.6900 
  7 O        2.6750    -1.3920    -0.2120 O.2   1 <1>  -0.5700 
  8 N        3.8380     0.5690     0.0030 N.am  1 <1>  -0.6600 
  9 C        5.1160    -0.1190     0.0380 C.3   1 <1>   0.3000 
 10 H        5.0100    -1.2020    -0.0520 H     1 <1>   0.0000 
 11 H        5.6100     0.1100     0.9880 H     1 <1>   0.0000 
 12 H        5.7340     0.2440    -0.7890 H     1 <1>   0.0000 
 13 C        3.8660     2.0140     0.1430 C.3   1 <1>   0.3000 
 14 H        3.8750     2.2420     1.2150 H     1 <1>   0.0000 
 15 H        4.7960     2.3980    -0.2920 H     1 <1>   0.0000 
 16 C        2.6870     2.6600    -0.5430 C.3   1 <1>   0.0000 
 17 H        2.6740     3.7400    -0.3660 H     1 <1>   0.0000 
 18 H        2.7500     2.4990    -1.6270 H     1 <1>   0.0000 
 19 C        1.4370     2.0100     0.0020 C.3   1 <1>   0.3000 
 20 H        0.5640     2.3850    -0.5440 H     1 <1>   0.0000 
 21 H        1.2990     2.2470     1.0640 H     1 <1>   0.0000 
@<TRIPOS>BOND
  1   1   2  1   
  2   2   3  1   
  3   2   4  1   
  4   2   5  1   
  5   5   6  am  
  6   5  19  1   
  7   6   7  2   
  8   6   8  am  
  9   8   9  1   
 10   8  13  1   
 11   9  10  1   
 12   9  11  1   
 13   9  12  1   
 14  13  14  1   
 15  13  15  1   
 16  13  16  1   
 17  16  17  1   
 18  16  18  1   
 19  16  19  1   
 20  19  20  1   
 21  19  21  1   
@<TRIPOS>SUBSTRUCTURE
  1 ****   6 GROUP 4 **** **** 0

# MOE 2022.02 (io_trps.svl 2020.11)

@<TRIPOS>MOLECULE
SEL070
17 18 1 0 0 
SMALL
USER_CHARGES


@<TRIPOS>ATOM
  1 H        4.9840     1.0950    -0.1090 H     1 <1>   0.1500 
  2 C        4.0370     1.6310    -0.0650 C.ar  1 <1>  -0.1500 
  3 C        4.0400     3.0370     0.0380 C.ar  1 <1>  -0.1500 
  4 H        4.9880     3.5700     0.0720 H     1 <1>   0.1500 
  5 C        2.8400     3.7530     0.0960 C.ar  1 <1>  -0.1500 
  6 H        2.8310     4.8360     0.1760 H     1 <1>   0.1500 
  7 C        1.6630     3.0290     0.0490 C.ar  1 <1>   0.0860 
  8 C        1.6610     1.6450    -0.0530 C.ar  1 <1>   0.0860 
  9 C        2.8350     0.9190    -0.1120 C.ar  1 <1>  -0.1500 
 10 H        2.8220    -0.1640    -0.1920 H     1 <1>   0.1500 
 11 C        0.2820     1.1580    -0.0810 C.2   1 <1>   0.4230 
 12 O       -0.0280    -0.0160    -0.1670 O.2   1 <1>  -0.5700 
 13 C       -0.6520     2.3400     0.0110 C.3   1 <1>   0.1220 
 14 H       -1.2610     2.4080    -0.8930 H     1 <1>   0.0000 
 15 H       -1.2500     2.2750     0.9220 H     1 <1>   0.0000 
 16 C        0.2860     3.5200     0.0920 C.2   1 <1>   0.4230 
 17 O       -0.0200     4.6940     0.1800 O.2   1 <1>  -0.5700 
@<TRIPOS>BOND
  1   1   2  1   
  2   2   3  ar  
  3   2   9  ar  
  4   3   4  1   
  5   3   5  ar  
  6   5   6  1   
  7   5   7  ar  
  8   7   8  ar  
  9   7  16  1   
 10   8   9  ar  
 11   8  11  1   
 12   9  10  1   
 13  11  12  2   
 14  11  13  1   
 15  13  14  1   
 16  13  15  1   
 17  13  16  1   
 18  16  17  2   
@<TRIPOS>SUBSTRUCTURE
  1 ****   7 GROUP 4 **** **** 0

# MOE 2022.02 (io_trps.svl 2020.11)

@<TRIPOS>MOLECULE
SEL071
15 16 1 0 0 
SMALL
USER_CHARGES


@<TRIPOS>ATOM
  1 H       -2.0670     1.2670     0.0030 H     1 <1>   0.1500 
  2 C       -1.0930     1.7510     0.0010 C.ar  1 <1>  -0.1500 
  3 C       -1.0140     3.1540     0.0050 C.ar  1 <1>  -0.1500 
  4 H       -1.9290     3.7420     0.0090 H     1 <1>   0.1500 
  5 C        0.2260     3.7990     0.0030 C.ar  1 <1>  -0.1500 
  6 H        0.2840     4.8810     0.0060 H     1 <1>   0.1500 
  7 C        1.3630     3.0110    -0.0020 C.ar  1 <1>   0.1170 
  8 C        1.2900     1.6190    -0.0050 C.ar  1 <1>   0.1020 
  9 S        2.9180     0.9170    -0.0110 S.3   1 <1>  -0.2420 
 10 C        3.6560     2.5240    -0.0090 C.2   1 <1>   0.5810 
 11 S        5.2780     2.8610    -0.0120 S.2   1 <1>  -0.3800 
 12 N        2.6730     3.4910    -0.0040 N.am  1 <1>  -0.5470 
 13 H        2.9030     4.4750    -0.0030 H     1 <1>   0.3700 
 14 C        0.0680     0.9710    -0.0040 C.ar  1 <1>  -0.1500 
 15 H        0.0080    -0.1130    -0.0060 H     1 <1>   0.1500 
@<TRIPOS>BOND
  1   1   2  1   
  2   2   3  ar  
  3   2  14  ar  
  4   3   4  1   
  5   3   5  ar  
  6   5   6  1   
  7   5   7  ar  
  8   7   8  ar  
  9   7  12  1   
 10   8   9  1   
 11   8  14  ar  
 12   9  10  1   
 13  10  11  2   
 14  10  12  am  
 15  12  13  1   
 16  14  15  1   
@<TRIPOS>SUBSTRUCTURE
  1 ****   7 GROUP 4 **** **** 0

# MOE 2022.02 (io_trps.svl 2020.11)

@<TRIPOS>MOLECULE
SEL072
12 12 1 0 0 
SMALL
USER_CHARGES


@<TRIPOS>ATOM
  1 H       -2.0200    -1.1490     0.0030 H     1 <1>   0.1500 
  2 C       -1.5610    -0.1650     0.0020 C.2   1 <1>  -0.0410 
  3 C       -2.2810     0.9610     0.0010 C.2   1 <1>   0.1540 
  4 CL      -3.9950     0.9520     0.0020 Cl    1 <1>  -0.1400 
  5 C       -1.5580     2.2640    -0.0010 C.2   1 <1>   0.6160 
  6 O       -2.1300     3.3490    -0.0020 O.2   1 <1>  -0.5700 
  7 N       -0.1870     2.1790    -0.0020 N.am  1 <1>  -0.4900 
  8 H        0.3280     3.0460    -0.0030 H     1 <1>   0.3700 
  9 C        0.5420     1.0220    -0.0010 C.2   1 <1>   0.6900 
 10 O        1.7670     1.0160    -0.0020 O.2   1 <1>  -0.5700 
 11 N       -0.1910    -0.1350     0.0010 N.am  1 <1>  -0.5390 
 12 H        0.3450    -0.9970     0.0020 H     1 <1>   0.3700 
@<TRIPOS>BOND
  1   1   2  1   
  2   2   3  2   
  3   2  11  1   
  4   3   4  1   
  5   3   5  1   
  6   5   6  2   
  7   5   7  am  
  8   7   8  1   
  9   7   9  am  
 10   9  10  2   
 11   9  11  am  
 12  11  12  1   
@<TRIPOS>SUBSTRUCTURE
  1 ****   5 GROUP 4 **** **** 0

# MOE 2022.02 (io_trps.svl 2020.11)

@<TRIPOS>MOLECULE
SEL073
16 16 1 0 0 
SMALL
USER_CHARGES


@<TRIPOS>ATOM
  1 H        6.7830    -3.0470    -0.8920 H     1 <1>   0.4000 
  2 O        5.8180    -3.1550    -0.8870 O.3   1 <1>  -0.6800 
  3 C        5.2960    -2.1150    -0.0710 C.3   1 <1>   0.4240 
  4 H        5.6380    -1.1610    -0.4860 H     1 <1>   0.0000 
  5 H        5.6920    -2.2290     0.9440 H     1 <1>   0.0000 
  6 C        3.7900    -2.1650    -0.0320 C.ar  1 <1>  -0.1440 
  7 C        3.0530    -0.9780     0.1140 C.ar  1 <1>  -0.1500 
  8 H        3.5610    -0.0180     0.1660 H     1 <1>   0.1500 
  9 C        1.6600    -1.0140     0.1930 C.ar  1 <1>  -0.1500 
 10 H        1.0860    -0.0990     0.3000 H     1 <1>   0.1500 
 11 C        1.0010    -2.2360     0.1350 C.ar  1 <1>   0.1900 
 12 F       -0.3360    -2.2680     0.2120 F     1 <1>  -0.1900 
 13 C        1.7080    -3.4240     0.0030 C.ar  1 <1>  -0.1500 
 14 H        1.1750    -4.3670    -0.0390 H     1 <1>   0.1500 
 15 C        3.1010    -3.3890    -0.0750 C.ar  1 <1>  -0.1500 
 16 H        3.6540    -4.3210    -0.1780 H     1 <1>   0.1500 
@<TRIPOS>BOND
  1   1   2  1   
  2   2   3  1   
  3   3   4  1   
  4   3   5  1   
  5   3   6  1   
  6   6   7  ar  
  7   6  15  ar  
  8   7   8  1   
  9   7   9  ar  
 10   9  10  1   
 11   9  11  ar  
 12  11  12  1   
 13  11  13  ar  
 14  13  14  1   
 15  13  15  ar  
 16  15  16  1   
@<TRIPOS>SUBSTRUCTURE
  1 ****   6 GROUP 4 **** **** 0

# MOE 2022.02 (io_trps.svl 2020.11)

@<TRIPOS>MOLECULE
SEL074
20 21 1 0 0 
SMALL
USER_CHARGES


@<TRIPOS>ATOM
  1 H       -6.1130    -3.4640     0.0150 H     1 <1>   0.1500 
  2 C       -5.7000    -2.4600     0.0110 C.ar  1 <1>   0.1600 
  3 N       -4.3520    -2.3980     0.0180 N.ar  1 <1>  -0.6200 
  4 C       -3.7470    -1.1760     0.0130 C.ar  1 <1>   0.3100 
  5 C       -2.2530    -1.1760     0.0210 C.ar  1 <1>   0.3100 
  6 N       -1.6480    -2.3970     0.0020 N.ar  1 <1>  -0.6200 
  7 C       -0.3000    -2.4600     0.0080 C.ar  1 <1>   0.1600 
  8 H        0.1130    -3.4640    -0.0080 H     1 <1>   0.1500 
  9 C        0.5190    -1.3490     0.0310 C.ar  1 <1>  -0.1500 
 10 H        1.5980    -1.4530     0.0350 H     1 <1>   0.1500 
 11 C       -0.0850    -0.1010     0.0520 C.ar  1 <1>  -0.1500 
 12 H        0.5210     0.8000     0.0720 H     1 <1>   0.1500 
 13 C       -1.4790    -0.0110     0.0470 C.ar  1 <1>  -0.1500 
 14 H       -1.9270     0.9740     0.0650 H     1 <1>   0.1500 
 15 C       -4.5220    -0.0110     0.0000 C.ar  1 <1>  -0.1500 
 16 H       -4.0730     0.9750    -0.0070 H     1 <1>   0.1500 
 17 C       -5.9150    -0.1010    -0.0060 C.ar  1 <1>  -0.1500 
 18 H       -6.5220     0.8000    -0.0170 H     1 <1>   0.1500 
 19 C       -6.5190    -1.3490    -0.0010 C.ar  1 <1>  -0.1500 
 20 H       -7.5980    -1.4540    -0.0060 H     1 <1>   0.1500 
@<TRIPOS>BOND
  1   1   2  1   
  2   2   3  ar  
  3   2  19  ar  
  4   3   4  ar  
  5   4   5  1   
  6   4  15  ar  
  7   5   6  ar  
  8   5  13  ar  
  9   6   7  ar  
 10   7   8  1   
 11   7   9  ar  
 12   9  10  1   
 13   9  11  ar  
 14  11  12  1   
 15  11  13  ar  
 16  13  14  1   
 17  15  16  1   
 18  15  17  ar  
 19  17  18  1   
 20  17  19  ar  
 21  19  20  1   
@<TRIPOS>SUBSTRUCTURE
  1 ****   4 GROUP 4 **** **** 0

# MOE 2022.02 (io_trps.svl 2020.11)

@<TRIPOS>MOLECULE
SEL075
15 16 1 0 0 
SMALL
USER_CHARGES


@<TRIPOS>ATOM
  1 H        1.1750     1.1040     0.0030 H     1 <1>   0.1500 
  2 C        0.1150     1.3170     0.0030 C.2   1 <1>  -0.0100 
  3 O       -0.6990     0.2290    -0.0020 O.3   1 <1>  -0.2800 
  4 C       -1.9800     0.6930    -0.0020 C.ar  1 <1>   0.1400 
  5 C       -3.1270    -0.0970    -0.0060 C.ar  1 <1>  -0.1500 
  6 H       -3.0670    -1.1780    -0.0110 H     1 <1>   0.1500 
  7 C       -4.3510     0.5810    -0.0060 C.ar  1 <1>  -0.1500 
  8 H       -5.2760     0.0090    -0.0100 H     1 <1>   0.1500 
  9 C       -4.4030     1.9780     0.0000 C.ar  1 <1>  -0.1500 
 10 H       -5.3700     2.4790     0.0010 H     1 <1>   0.1500 
 11 C       -3.2300     2.7460     0.0050 C.ar  1 <1>  -0.1500 
 12 H       -3.2820     3.8310     0.0100 H     1 <1>   0.1500 
 13 C       -1.9890     2.0830     0.0040 C.ar  1 <1>   0.0000 
 14 C       -0.6250     2.4770     0.0070 C.2   1 <1>  -0.1500 
 15 H       -0.2310     3.4830     0.0120 H     1 <1>   0.1500 
@<TRIPOS>BOND
  1   1   2  1   
  2   2   3  1   
  3   2  14  2   
  4   3   4  1   
  5   4   5  ar  
  6   4  13  ar  
  7   5   6  1   
  8   5   7  ar  
  9   7   8  1   
 10   7   9  ar  
 11   9  10  1   
 12   9  11  ar  
 13  11  12  1   
 14  11  13  ar  
 15  13  14  1   
 16  14  15  1   
@<TRIPOS>SUBSTRUCTURE
  1 ****   4 GROUP 4 **** **** 0

# MOE 2022.02 (io_trps.svl 2020.11)

@<TRIPOS>MOLECULE
SEL076
14 14 1 0 0 
SMALL
USER_CHARGES


@<TRIPOS>ATOM
  1 H        6.4030    -0.4250     0.0010 H     1 <1>   0.5000 
  2 O        5.4370    -0.2530     0.0020 O.3   1 <1>  -0.6500 
  3 C        4.8810    -1.4760     0.0000 C.2   1 <1>   0.6340 
  4 O        5.5600    -2.4850    -0.0010 O.2   1 <1>  -0.5700 
  5 C        3.4070    -1.4360     0.0010 C.ar  1 <1>   0.0860 
  6 C        2.6970    -0.2420     0.0010 C.ar  1 <1>   0.1600 
  7 H        3.1980     0.7230     0.0020 H     1 <1>   0.1500 
  8 N        1.3420    -0.1720     0.0020 N.ar  1 <1>  -0.6200 
  9 C        0.6730    -1.3500     0.0010 C.ar  1 <1>   0.1600 
 10 H       -0.4100    -1.2600     0.0010 H     1 <1>   0.1500 
 11 C        1.2990    -2.5880     0.0000 C.ar  1 <1>   0.1110 
 12 BR       0.2870    -4.1790     0.0000 Br    1 <1>  -0.1110 
 13 C        2.6890    -2.6350     0.0000 C.ar  1 <1>  -0.1500 
 14 H        3.2130    -3.5870    -0.0010 H     1 <1>   0.1500 
@<TRIPOS>BOND
  1   1   2  1   
  2   2   3  1   
  3   3   4  2   
  4   3   5  1   
  5   5   6  ar  
  6   5  13  ar  
  7   6   7  1   
  8   6   8  ar  
  9   8   9  ar  
 10   9  10  1   
 11   9  11  ar  
 12  11  12  1   
 13  11  13  ar  
 14  13  14  1   
@<TRIPOS>SUBSTRUCTURE
  1 ****   5 GROUP 4 **** **** 0

# MOE 2022.02 (io_trps.svl 2020.11)

@<TRIPOS>MOLECULE
SEL077
22 22 1 0 0 
SMALL
USER_CHARGES


@<TRIPOS>ATOM
  1 H        1.1800     4.2790    -0.7570 H     1 <1>   0.5000 
  2 O        1.1630     3.3020    -0.8430 O.3   1 <1>  -0.6500 
  3 C        2.1130     2.8860     0.0160 C.2   1 <1>   0.6340 
  4 O        2.7280     3.6710     0.7100 O.2   1 <1>  -0.5700 
  5 C        2.2410     1.4180    -0.0140 C.ar  1 <1>   0.0860 
  6 C        3.4770     0.7710    -0.0250 C.ar  1 <1>   0.4120 
  7 S        5.0300     1.6510    -0.1500 S.3   1 <1>  -0.3320 
  8 C        6.2060     0.3250     0.2570 C.3   1 <1>   0.3680 
  9 H        6.1500    -0.4650    -0.4990 H     1 <1>   0.0000 
 10 H        5.9600    -0.1060     1.2340 H     1 <1>   0.0000 
 11 C        7.5880     0.9070     0.3200 C.2   1 <1>  -0.2880 
 12 H        7.7670     1.6610     1.0850 H     1 <1>   0.1500 
 13 C        8.5990     0.5500    -0.4850 C.2   1 <1>  -0.3000 
 14 H        8.4740    -0.1980    -1.2610 H     1 <1>   0.1500 
 15 H        9.5770     1.0110    -0.3830 H     1 <1>   0.1500 
 16 N        3.5690    -0.5880    -0.0150 N.ar  1 <1>  -0.6200 
 17 C        2.4260    -1.3080     0.0060 C.ar  1 <1>   0.1600 
 18 H        2.5580    -2.3870     0.0130 H     1 <1>   0.1500 
 19 C        1.1650    -0.7440     0.0130 C.ar  1 <1>  -0.1500 
 20 H        0.2770    -1.3660     0.0280 H     1 <1>   0.1500 
 21 C        1.0720     0.6420     0.0040 C.ar  1 <1>  -0.1500 
 22 H        0.0940     1.1180     0.0160 H     1 <1>   0.1500 
@<TRIPOS>BOND
  1   1   2  1   
  2   2   3  1   
  3   3   4  2   
  4   3   5  1   
  5   5   6  ar  
  6   5  21  ar  
  7   6   7  1   
  8   6  16  ar  
  9   7   8  1   
 10   8   9  1   
 11   8  10  1   
 12   8  11  1   
 13  11  12  1   
 14  11  13  2   
 15  13  14  1   
 16  13  15  1   
 17  16  17  ar  
 18  17  18  1   
 19  17  19  ar  
 20  19  20  1   
 21  19  21  ar  
 22  21  22  1   
@<TRIPOS>SUBSTRUCTURE
  1 ****   6 GROUP 4 **** **** 0

# MOE 2022.02 (io_trps.svl 2020.11)

@<TRIPOS>MOLECULE
SEL078
16 16 1 0 0 
SMALL
USER_CHARGES


@<TRIPOS>ATOM
  1 H        6.6620    -1.4790    -1.1630 H     1 <1>   0.4500 
  2 O        5.9370    -1.9080    -0.6750 O.3   1 <1>  -0.5130 
  3 C        4.9250    -1.0540    -0.6510 C.2   1 <1>  -0.0890 
  4 C        4.7720     0.2160    -1.1590 C.2   1 <1>  -0.1500 
  5 H        5.5140     0.7780    -1.7100 H     1 <1>   0.1500 
  6 C        3.4630     0.6490    -0.8260 C.2   1 <1>  -0.1500 
  7 H        3.0150     1.6030    -1.0720 H     1 <1>   0.1500 
  8 C        2.8500    -0.3700    -0.1190 C.2   1 <1>  -0.3320 
  9 C        1.4950    -0.4670     0.4740 C.3   1 <1>   0.7400 
 10 H        0.7120    -0.3260    -0.2760 H     1 <1>   0.0000 
 11 O        1.3690    -1.7340     1.0780 O.3   1 <1>  -0.6800 
 12 H        0.4360    -1.7710     1.3470 H     1 <1>   0.4000 
 13 O        1.3880     0.5060     1.4840 O.3   1 <1>  -0.6800 
 14 H        2.2710     0.5650     1.8870 H     1 <1>   0.4000 
 15 N        3.7590    -1.3990    -0.0290 N.pl3 1 <1>   0.0330 
 16 H        3.5800    -2.2810     0.4340 H     1 <1>   0.2700 
@<TRIPOS>BOND
  1   1   2  1   
  2   2   3  1   
  3   3   4  2   
  4   3  15  1   
  5   4   5  1   
  6   4   6  1   
  7   6   7  1   
  8   6   8  2   
  9   8   9  1   
 10   8  15  1   
 11   9  10  1   
 12   9  11  1   
 13   9  13  1   
 14  11  12  1   
 15  13  14  1   
 16  15  16  1   
@<TRIPOS>SUBSTRUCTURE
  1 ****   8 GROUP 4 **** **** 0

# MOE 2022.02 (io_trps.svl 2020.11)

@<TRIPOS>MOLECULE
SEL079
19 19 1 0 0 
SMALL
USER_CHARGES


@<TRIPOS>ATOM
  1 H        5.8580     0.7850     0.7860 H     1 <1>   0.5000 
  2 O        4.9910     0.5130     0.4160 O.3   1 <1>  -0.6500 
  3 C        4.2840     1.6600     0.3610 C.2   1 <1>   0.6590 
  4 O        4.7920     2.7080     0.7240 O.2   1 <1>  -0.5700 
  5 C        2.9040     1.4650    -0.2220 C.3   1 <1>   0.0610 
  6 H        3.0390     1.0770    -1.2410 H     1 <1>   0.0000 
  7 C        2.1670     2.8120    -0.3100 C.3   1 <1>   0.1380 
  8 H        2.2770     3.3820     0.6200 H     1 <1>   0.0000 
  9 H        2.6230     3.4170    -1.1040 H     1 <1>   0.0000 
 10 C        0.6990     2.6620    -0.5930 C.2   1 <1>  -0.2880 
 11 H        0.1600     3.5520    -0.9110 H     1 <1>   0.1500 
 12 C        0.0460     1.4980    -0.4690 C.2   1 <1>  -0.2880 
 13 H       -1.0150     1.4490    -0.7070 H     1 <1>   0.1500 
 14 C        0.7040     0.2330    -0.0060 C.3   1 <1>   0.1380 
 15 H        0.7850    -0.4480    -0.8610 H     1 <1>   0.0000 
 16 H        0.0660    -0.2590     0.7370 H     1 <1>   0.0000 
 17 C        2.0900     0.4620     0.6030 C.3   1 <1>   0.0000 
 18 H        1.9840     0.8340     1.6320 H     1 <1>   0.0000 
 19 H        2.6110    -0.5000     0.6800 H     1 <1>   0.0000 
@<TRIPOS>BOND
  1   1   2  1   
  2   2   3  1   
  3   3   4  2   
  4   3   5  1   
  5   5   6  1   
  6   5   7  1   
  7   5  17  1   
  8   7   8  1   
  9   7   9  1   
 10   7  10  1   
 11  10  11  1   
 12  10  12  2   
 13  12  13  1   
 14  12  14  1   
 15  14  15  1   
 16  14  16  1   
 17  14  17  1   
 18  17  18  1   
 19  17  19  1   
@<TRIPOS>SUBSTRUCTURE
  1 ****   5 GROUP 4 **** **** 0

# MOE 2022.02 (io_trps.svl 2020.11)

@<TRIPOS>MOLECULE
SEL080
23 23 1 0 0 
SMALL
USER_CHARGES


@<TRIPOS>ATOM
  1 H       -6.0370    -4.6540     0.2280 H     1 <1>   0.1500 
  2 C       -5.0800    -4.1400     0.1890 C.ar  1 <1>  -0.1500 
  3 C       -3.8930    -4.8670     0.2630 C.ar  1 <1>  -0.1500 
  4 H       -3.9280    -5.9500     0.3600 H     1 <1>   0.1500 
  5 C       -2.6610    -4.2100     0.2130 C.ar  1 <1>  -0.1500 
  6 H       -1.7580    -4.8100     0.2750 H     1 <1>   0.1500 
  7 C       -2.6120    -2.8150     0.0880 C.ar  1 <1>   0.0860 
  8 C       -1.3210    -2.0610     0.0290 C.2   1 <1>   0.4230 
  9 O       -1.3460    -0.8330    -0.0290 O.2   1 <1>  -0.5700 
 10 C       -0.0190    -2.8460     0.0450 C.3   1 <1>   0.0610 
 11 H        0.0420    -3.3990     0.9890 H     1 <1>   0.0000 
 12 H       -0.0290    -3.5540    -0.7910 H     1 <1>   0.0000 
 13 C        1.2040    -1.9380    -0.0850 C.3   1 <1>   0.0000 
 14 H        1.1370    -1.3500    -1.0090 H     1 <1>   0.0000 
 15 H        1.2280    -1.2220     0.7450 H     1 <1>   0.0000 
 16 C        2.4950    -2.7400    -0.0940 C.3   1 <1>   0.0000 
 17 H        2.5160    -3.4400    -0.9350 H     1 <1>   0.0000 
 18 H        2.6070    -3.3120     0.8320 H     1 <1>   0.0000 
 19 H        3.3560    -2.0720    -0.1870 H     1 <1>   0.0000 
 20 C       -3.8110    -2.0920     0.0160 C.ar  1 <1>  -0.1500 
 21 H       -3.7940    -1.0080    -0.0800 H     1 <1>   0.1500 
 22 C       -5.0400    -2.7530     0.0660 C.ar  1 <1>  -0.1500 
 23 H       -5.9650    -2.1830     0.0090 H     1 <1>   0.1500 
@<TRIPOS>BOND
  1   1   2  1   
  2   2   3  ar  
  3   2  22  ar  
  4   3   4  1   
  5   3   5  ar  
  6   5   6  1   
  7   5   7  ar  
  8   7   8  1   
  9   7  20  ar  
 10   8   9  2   
 11   8  10  1   
 12  10  11  1   
 13  10  12  1   
 14  10  13  1   
 15  13  14  1   
 16  13  15  1   
 17  13  16  1   
 18  16  17  1   
 19  16  18  1   
 20  16  19  1   
 21  20  21  1   
 22  20  22  ar  
 23  22  23  1   
@<TRIPOS>SUBSTRUCTURE
  1 ****   7 GROUP 4 **** **** 0

# MOE 2022.02 (io_trps.svl 2020.11)

@<TRIPOS>MOLECULE
SEL081
14 15 1 0 0 
SMALL
USER_CHARGES


@<TRIPOS>ATOM
  1 H       -0.5470     0.7210    -0.0190 H     1 <1>   0.4500 
  2 O        0.2390     0.1520    -0.0030 O.3   1 <1>  -0.5890 
  3 N        1.3230     1.0030    -0.0090 N.pl3 1 <1>   0.7090 
  4 N        1.0900     2.3220    -0.0330 N.2   1 <1>  -0.4180 
  5 N        2.2780     2.9250    -0.0340 N.2   1 <1>  -0.2270 
  6 C        3.2450     1.9500    -0.0090 C.ar  1 <1>   0.2270 
  7 C        4.6430     2.0140     0.0010 C.ar  1 <1>  -0.1500 
  8 H        5.1620     2.9650    -0.0110 H     1 <1>   0.1500 
  9 C        5.3330     0.7980     0.0270 C.ar  1 <1>  -0.1500 
 10 H        6.4180     0.7810     0.0360 H     1 <1>   0.1500 
 11 C        4.6140    -0.3960     0.0410 C.ar  1 <1>   0.1600 
 12 H        5.1430    -1.3480     0.0610 H     1 <1>   0.1500 
 13 N        3.2640    -0.5100     0.0320 N.ar  1 <1>  -0.5670 
 14 C        2.6510     0.6940     0.0070 C.ar  1 <1>   0.1050 
@<TRIPOS>BOND
  1   1   2  1   
  2   2   3  1   
  3   3   4  1   
  4   3  14  1   
  5   4   5  2   
  6   5   6  1   
  7   6   7  ar  
  8   6  14  ar  
  9   7   8  1   
 10   7   9  ar  
 11   9  10  1   
 12   9  11  ar  
 13  11  12  1   
 14  11  13  ar  
 15  13  14  ar  
@<TRIPOS>SUBSTRUCTURE
  1 ****  14 GROUP 4 **** **** 0

# MOE 2022.02 (io_trps.svl 2020.11)

@<TRIPOS>MOLECULE
SEL082
28 29 1 0 0 
SMALL
USER_CHARGES


@<TRIPOS>ATOM
  1 H       -6.7530     0.4160     0.0250 H     1 <1>   0.1500 
  2 C       -5.6690     0.3560     0.0240 C.ar  1 <1>  -0.1500 
  3 C       -5.0090    -0.8670    -0.0820 C.ar  1 <1>   0.0820 
  4 O       -5.6070    -2.0950    -0.1920 O.3   1 <1>  -0.3630 
  5 C       -7.0280    -2.1180    -0.2210 C.3   1 <1>   0.2800 
  6 H       -7.4150    -1.5680    -1.0860 H     1 <1>   0.0000 
  7 H       -7.4490    -1.7340     0.7140 H     1 <1>   0.0000 
  8 H       -7.3440    -3.1610    -0.3230 H     1 <1>   0.0000 
  9 C       -3.6070    -0.9060    -0.0790 C.ar  1 <1>  -0.1500 
 10 H       -3.0950    -1.8600    -0.1630 H     1 <1>   0.1500 
 11 C       -2.8640     0.2890     0.0290 C.ar  1 <1>   0.0000 
 12 C       -1.4610     0.5910     0.0620 C.2   1 <1>  -0.1810 
 13 C       -0.3570    -0.4250    -0.0190 C.3   1 <1>   0.1810 
 14 H       -0.4960    -1.0130    -0.9360 H     1 <1>   0.0000 
 15 H       -0.4700    -1.1190     0.8250 H     1 <1>   0.0000 
 16 C        1.0600     0.1580    -0.0060 C.3   1 <1>   0.2700 
 17 H        1.2190     0.7520     0.9010 H     1 <1>   0.0000 
 18 H        1.2000     0.8240    -0.8650 H     1 <1>   0.0000 
 19 N        2.0770    -0.8950    -0.0610 N.3   1 <1>  -0.9900 
 20 H        1.9940    -1.4900     0.7620 H     1 <1>   0.3600 
 21 H        3.0020    -0.4680    -0.0120 H     1 <1>   0.3600 
 22 C       -1.3610     1.9650     0.1840 C.2   1 <1>  -0.3020 
 23 H       -0.5010     2.6180     0.2440 H     1 <1>   0.1500 
 24 N       -2.6240     2.4920     0.2230 N.pl3 1 <1>   0.0330 
 25 H       -2.8430     3.4750     0.3060 H     1 <1>   0.2700 
 26 C       -3.5610     1.4910     0.1320 C.ar  1 <1>  -0.1520 
 27 C       -4.9580     1.5580     0.1320 C.ar  1 <1>  -0.1500 
 28 H       -5.4800     2.5060     0.2130 H     1 <1>   0.1500 
@<TRIPOS>BOND
  1   1   2  1   
  2   2   3  ar  
  3   2  27  ar  
  4   3   4  1   
  5   3   9  ar  
  6   4   5  1   
  7   5   6  1   
  8   5   7  1   
  9   5   8  1   
 10   9  10  1   
 11   9  11  ar  
 12  11  12  1   
 13  11  26  ar  
 14  12  13  1   
 15  12  22  2   
 16  13  14  1   
 17  13  15  1   
 18  13  16  1   
 19  16  17  1   
 20  16  18  1   
 21  16  19  1   
 22  19  20  1   
 23  19  21  1   
 24  22  23  1   
 25  22  24  1   
 26  24  25  1   
 27  24  26  1   
 28  26  27  ar  
 29  27  28  1   
@<TRIPOS>SUBSTRUCTURE
  1 ****  11 GROUP 4 **** **** 0

# MOE 2022.02 (io_trps.svl 2020.11)

@<TRIPOS>MOLECULE
SEL083
15 14 1 0 0 
SMALL
USER_CHARGES


@<TRIPOS>ATOM
  1 H       -0.8350    -1.6310    -0.1110 H     1 <1>   0.5000 
  2 O       -0.0450    -1.0970     0.1090 O.3   1 <1>  -0.6500 
  3 C        0.9840    -1.9490     0.0860 C.2   1 <1>   0.7200 
  4 O        0.8580    -3.1280    -0.1820 O.2   1 <1>  -0.5700 
  5 C        2.3300    -1.2950     0.4230 C.2   1 <1>   0.5090 
  6 O        2.3670    -0.2030     0.9770 O.2   1 <1>  -0.5700 
  7 C        3.5420    -2.1210     0.0860 C.3   1 <1>   0.0610 
  8 H        3.7070    -2.8330     0.9010 H     1 <1>   0.0000 
  9 H        3.3490    -2.6890    -0.8310 H     1 <1>   0.0000 
 10 C        4.7540    -1.2300    -0.1140 C.3   1 <1>   0.5600 
 11 H        4.8370    -0.4580     0.6580 H     1 <1>   0.0000 
 12 O        5.9380    -2.0020    -0.0970 O.3   1 <1>  -0.6800 
 13 H        5.8160    -2.6950    -0.7670 H     1 <1>   0.4000 
 14 O        4.6940    -0.6210    -1.3870 O.3   1 <1>  -0.6800 
 15 H        5.3000     0.1390    -1.3340 H     1 <1>   0.4000 
@<TRIPOS>BOND
  1   1   2  1   
  2   2   3  1   
  3   3   4  2   
  4   3   5  1   
  5   5   6  2   
  6   5   7  1   
  7   7   8  1   
  8   7   9  1   
  9   7  10  1   
 10  10  11  1   
 11  10  12  1   
 12  10  14  1   
 13  12  13  1   
 14  14  15  1   
@<TRIPOS>SUBSTRUCTURE
  1 ****   5 GROUP 4 **** **** 0

# MOE 2022.02 (io_trps.svl 2020.11)

@<TRIPOS>MOLECULE
SEL084
23 24 1 0 0 
SMALL
USER_CHARGES


@<TRIPOS>ATOM
  1 H       -1.7150     0.5880     0.8710 H     1 <1>   0.1500 
  2 C       -1.3060     1.5880     0.7470 C.ar  1 <1>  -0.1500 
  3 C       -1.9930     2.6830     1.2630 C.ar  1 <1>  -0.1500 
  4 H       -2.9330     2.5290     1.7880 H     1 <1>   0.1500 
  5 C       -1.4950     3.9810     1.1130 C.ar  1 <1>  -0.1500 
  6 H       -2.0350     4.8330     1.5130 H     1 <1>   0.1500 
  7 C       -0.2830     4.1360     0.4300 C.ar  1 <1>  -0.1520 
  8 C        0.4310     3.0590    -0.0970 C.ar  1 <1>   0.0000 
  9 C       -0.0960     1.7610     0.0650 C.ar  1 <1>  -0.1500 
 10 H        0.4250     0.8970    -0.3360 H     1 <1>   0.1500 
 11 C        1.6140     3.5870    -0.7100 C.2   1 <1>  -0.1810 
 12 C        2.6930     2.8100    -1.3980 C.3   1 <1>   0.2420 
 13 H        2.3080     1.8500    -1.7590 H     1 <1>   0.0000 
 14 H        3.0390     3.3720    -2.2740 H     1 <1>   0.0000 
 15 C        3.8980     2.5250    -0.5170 C.2   1 <1>   0.5690 
 16 O        5.0510     2.5480    -0.9430 O.2   1 <1>  -0.5700 
 17 N        3.6530     2.1500     0.7720 N.am  1 <1>  -0.8000 
 18 H        2.7200     2.1130     1.1620 H     1 <1>   0.3700 
 19 H        4.4410     1.9160     1.3590 H     1 <1>   0.3700 
 20 C        1.5700     4.9590    -0.5460 C.2   1 <1>  -0.3020 
 21 H        2.2590     5.7340    -0.8570 H     1 <1>   0.1500 
 22 N        0.4280     5.2760     0.1370 N.pl3 1 <1>   0.0330 
 23 H        0.1410     6.2110     0.3910 H     1 <1>   0.2700 
@<TRIPOS>BOND
  1   1   2  1   
  2   2   3  ar  
  3   2   9  ar  
  4   3   4  1   
  5   3   5  ar  
  6   5   6  1   
  7   5   7  ar  
  8   7   8  ar  
  9   7  22  1   
 10   8   9  ar  
 11   8  11  1   
 12   9  10  1   
 13  11  12  1   
 14  11  20  2   
 15  12  13  1   
 16  12  14  1   
 17  12  15  1   
 18  15  16  2   
 19  15  17  am  
 20  17  18  1   
 21  17  19  1   
 22  20  21  1   
 23  20  22  1   
 24  22  23  1   
@<TRIPOS>SUBSTRUCTURE
  1 ****   8 GROUP 4 **** **** 0

# MOE 2022.02 (io_trps.svl 2020.11)

@<TRIPOS>MOLECULE
SEL085
17 17 1 0 0 
SMALL
USER_CHARGES


@<TRIPOS>ATOM
  1 H       -4.8990     2.2610     0.2100 H     1 <1>   0.1500 
  2 C       -3.8130     2.2680     0.1620 C.ar  1 <1>  -0.1500 
  3 C       -3.1170     1.0710     0.0050 C.ar  1 <1>  -0.1500 
  4 H       -3.6570     0.1310    -0.0680 H     1 <1>   0.1500 
  5 C       -1.7220     1.0790    -0.0570 C.ar  1 <1>  -0.1500 
  6 H       -1.1890     0.1380    -0.1790 H     1 <1>   0.1500 
  7 C       -1.0140     2.2850     0.0360 C.ar  1 <1>   0.0860 
  8 C        0.4760     2.2420    -0.0370 C.2   1 <1>   0.4230 
  9 O        1.0550     1.1630    -0.1530 O.2   1 <1>  -0.5700 
 10 C        1.2480     3.5330     0.0320 C.3   1 <1>   0.0610 
 11 H        2.3170     3.3180    -0.0590 H     1 <1>   0.0000 
 12 H        1.0810     4.0230     0.9950 H     1 <1>   0.0000 
 13 H        0.9650     4.1900    -0.7950 H     1 <1>   0.0000 
 14 C       -1.7210     3.4840     0.1940 C.ar  1 <1>  -0.1500 
 15 H       -1.2120     4.4400     0.2720 H     1 <1>   0.1500 
 16 C       -3.1170     3.4720     0.2560 C.ar  1 <1>  -0.1500 
 17 H       -3.6640     4.4040     0.3790 H     1 <1>   0.1500 
@<TRIPOS>BOND
  1   1   2  1   
  2   2   3  ar  
  3   2  16  ar  
  4   3   4  1   
  5   3   5  ar  
  6   5   6  1   
  7   5   7  ar  
  8   7   8  1   
  9   7  14  ar  
 10   8   9  2   
 11   8  10  1   
 12  10  11  1   
 13  10  12  1   
 14  10  13  1   
 15  14  15  1   
 16  14  16  ar  
 17  16  17  1   
@<TRIPOS>SUBSTRUCTURE
  1 ****   7 GROUP 4 **** **** 0

# MOE 2022.02 (io_trps.svl 2020.11)

@<TRIPOS>MOLECULE
SEL086
18 19 1 0 0 
SMALL
USER_CHARGES


@<TRIPOS>ATOM
  1 H       -1.9300     1.2550     0.0160 H     1 <1>   0.1500 
  2 C       -0.8440     1.2940     0.0120 C.ar  1 <1>  -0.1500 
  3 C       -0.1300     0.0950     0.0220 C.ar  1 <1>  -0.1500 
  4 H       -0.6700    -0.8490     0.0330 H     1 <1>   0.1500 
  5 C        1.2650     0.0890     0.0170 C.ar  1 <1>  -0.1500 
  6 H        1.8190    -0.8430     0.0240 H     1 <1>   0.1500 
  7 C        1.9120     1.3290     0.0020 C.ar  1 <1>  -0.1520 
  8 C        1.2220     2.5430    -0.0080 C.ar  1 <1>   0.0000 
  9 C        2.2110     3.5730    -0.0210 C.2   1 <1>  -0.1500 
 10 H        2.0280     4.6380    -0.0300 H     1 <1>   0.1500 
 11 C        3.4510     2.9760    -0.0200 C.2   1 <1>  -0.3020 
 12 H        4.4470     3.3960    -0.0280 H     1 <1>   0.1500 
 13 N        3.2580     1.6210    -0.0060 N.pl3 1 <1>   0.0330 
 14 H        3.9930     0.9280    -0.0030 H     1 <1>   0.2700 
 15 C       -0.1950     2.5400    -0.0030 C.ar  1 <1>   0.1000 
 16 N       -0.9400     3.7080    -0.0120 N.pl3 1 <1>  -0.9000 
 17 H       -0.4680     4.6010    -0.0240 H     1 <1>   0.4000 
 18 H       -1.9490     3.6810    -0.0070 H     1 <1>   0.4000 
@<TRIPOS>BOND
  1   1   2  1   
  2   2   3  ar  
  3   2  15  ar  
  4   3   4  1   
  5   3   5  ar  
  6   5   6  1   
  7   5   7  ar  
  8   7   8  ar  
  9   7  13  1   
 10   8   9  1   
 11   8  15  ar  
 12   9  10  1   
 13   9  11  2   
 14  11  12  1   
 15  11  13  1   
 16  13  14  1   
 17  15  16  1   
 18  16  17  1   
 19  16  18  1   
@<TRIPOS>SUBSTRUCTURE
  1 ****   8 GROUP 4 **** **** 0

# MOE 2022.02 (io_trps.svl 2020.11)

@<TRIPOS>MOLECULE
SEL087
17 18 1 0 0 
SMALL
USER_CHARGES


@<TRIPOS>ATOM
  1 H       -6.0040     2.9280     0.0110 H     1 <1>   0.1500 
  2 C       -4.9170     2.9570     0.0090 C.ar  1 <1>  -0.1500 
  3 C       -4.1880     1.7690     0.0070 C.ar  1 <1>  -0.1500 
  4 H       -4.7060     0.8130     0.0070 H     1 <1>   0.1500 
  5 C       -2.7910     1.8050     0.0040 C.ar  1 <1>  -0.1500 
  6 H       -2.2410     0.8660     0.0030 H     1 <1>   0.1500 
  7 C       -2.1070     3.0300     0.0040 C.ar  1 <1>   0.0540 
  8 C       -0.6520     3.0680     0.0020 C.2   1 <1>   0.4620 
  9 N        0.1110     1.9220     0.0000 N.2   1 <1>  -0.2270 
 10 N        1.3790     2.3050    -0.0010 N.2   1 <1>  -0.4180 
 11 N        1.3250     3.6410     0.0000 N.pl3 1 <1>   0.5660 
 12 H        2.1680     4.2090     0.0000 H     1 <1>   0.2700 
 13 N        0.0990     4.1840     0.0020 N.2   1 <1>  -0.7070 
 14 C       -2.8550     4.2180     0.0060 C.ar  1 <1>  -0.1500 
 15 H       -2.3520     5.1840     0.0050 H     1 <1>   0.1500 
 16 C       -4.2520     4.1810     0.0080 C.ar  1 <1>  -0.1500 
 17 H       -4.8190     5.1090     0.0100 H     1 <1>   0.1500 
@<TRIPOS>BOND
  1   1   2  1   
  2   2   3  ar  
  3   2  16  ar  
  4   3   4  1   
  5   3   5  ar  
  6   5   6  1   
  7   5   7  ar  
  8   7   8  1   
  9   7  14  ar  
 10   8   9  1   
 11   8  13  2   
 12   9  10  2   
 13  10  11  1   
 14  11  12  1   
 15  11  13  1   
 16  14  15  1   
 17  14  16  ar  
 18  16  17  1   
@<TRIPOS>SUBSTRUCTURE
  1 ****   7 GROUP 4 **** **** 0

# MOE 2022.02 (io_trps.svl 2020.11)

@<TRIPOS>MOLECULE
SEL088
13 14 1 0 0 
SMALL
USER_CHARGES


@<TRIPOS>ATOM
  1 H       -5.4310    -1.9760    -0.0020 H     1 <1>   0.1500 
  2 C       -4.4710    -1.4580    -0.0010 C.ar  1 <1>  -0.1500 
  3 C       -4.4710    -0.0420     0.0010 C.ar  1 <1>  -0.1500 
  4 H       -5.4300     0.4770     0.0020 H     1 <1>   0.1500 
  5 C       -3.2930     0.7280     0.0030 C.ar  1 <1>  -0.1500 
  6 H       -3.3080     1.8110     0.0050 H     1 <1>   0.1500 
  7 C       -2.0770     0.0030     0.0020 C.ar  1 <1>   0.2890 
  8 N       -0.8440     0.5320     0.0030 N.2   1 <1>  -0.5100 
  9 S        0.2130    -0.7510     0.0010 S.3   1 <1>   0.4410 
 10 N       -0.8440    -2.0330    -0.0020 N.2   1 <1>  -0.5100 
 11 C       -2.0780    -1.5050    -0.0010 C.ar  1 <1>   0.2890 
 12 C       -3.2940    -2.2290    -0.0030 C.ar  1 <1>  -0.1500 
 13 H       -3.3100    -3.3120    -0.0050 H     1 <1>   0.1500 
@<TRIPOS>BOND
  1   1   2  1   
  2   2   3  ar  
  3   2  12  ar  
  4   3   4  1   
  5   3   5  ar  
  6   5   6  1   
  7   5   7  ar  
  8   7   8  2   
  9   7  11  ar  
 10   8   9  1   
 11   9  10  1   
 12  10  11  2   
 13  11  12  ar  
 14  12  13  1   
@<TRIPOS>SUBSTRUCTURE
  1 ****   7 GROUP 4 **** **** 0

# MOE 2022.02 (io_trps.svl 2020.11)

@<TRIPOS>MOLECULE
SEL089
14 14 1 0 0 
SMALL
USER_CHARGES


@<TRIPOS>ATOM
  1 H        5.4100    -2.2460    -0.0140 H     1 <1>   0.4000 
  2 N        4.4130    -2.4700    -0.0120 N.2   1 <1>  -0.8500 
  3 C        3.7390    -1.3630    -0.0200 C.2   1 <1>   0.5090 
  4 N        4.3740    -0.1550    -0.0300 N.pl3 1 <1>  -0.8500 
  5 H        5.3750    -0.0470    -0.0310 H     1 <1>   0.4000 
  6 H        3.7870     0.6770    -0.0360 H     1 <1>   0.4000 
  7 N        2.3180    -1.4260    -0.0190 N.pl3 1 <1>   0.5610 
  8 N        1.6040    -0.2590    -0.0250 N.2   1 <1>  -0.7070 
  9 C        0.3320    -0.6660    -0.0210 C.2   1 <1>   0.1390 
 10 H       -0.4550     0.0780    -0.0240 H     1 <1>   0.1500 
 11 C        0.2050    -2.0660    -0.0130 C.2   1 <1>  -0.1500 
 12 H       -0.7010    -2.6550    -0.0090 H     1 <1>   0.1500 
 13 C        1.4970    -2.5310    -0.0120 C.2   1 <1>  -0.3020 
 14 H        1.9200    -3.5250    -0.0070 H     1 <1>   0.1500 
@<TRIPOS>BOND
  1   1   2  1   
  2   2   3  2   
  3   3   4  1   
  4   3   7  1   
  5   4   5  1   
  6   4   6  1   
  7   7   8  1   
  8   7  13  1   
  9   8   9  2   
 10   9  10  1   
 11   9  11  1   
 12  11  12  1   
 13  11  13  2   
 14  13  14  1   
@<TRIPOS>SUBSTRUCTURE
  1 ****   7 GROUP 4 **** **** 0

# MOE 2022.02 (io_trps.svl 2020.11)

@<TRIPOS>MOLECULE
SEL090
25 26 1 0 0 
SMALL
USER_CHARGES


@<TRIPOS>ATOM
  1 H        9.6960     2.2760     0.2680 H     1 <1>   0.4000 
  2 O        8.9020     1.7160     0.2440 O.3   1 <1>  -0.6800 
  3 C        7.7770     2.5890     0.1960 C.3   1 <1>   0.2800 
  4 H        7.8670     3.2110    -0.7010 H     1 <1>   0.0000 
  5 H        7.8060     3.2310     1.0820 H     1 <1>   0.0000 
  6 C        6.4950     1.7560     0.1610 C.3   1 <1>   0.1440 
  7 H        6.4960     1.1110     1.0500 H     1 <1>   0.0000 
  8 H        6.5580     1.0900    -0.7090 H     1 <1>   0.0000 
  9 C        5.1680     2.4960     0.1070 C.ar  1 <1>  -0.1440 
 10 C        5.1210     3.9020     0.0930 C.ar  1 <1>  -0.1500 
 11 H        6.0260     4.5010     0.1210 H     1 <1>   0.1500 
 12 C        3.9050     4.5790     0.0430 C.ar  1 <1>  -0.1500 
 13 H        3.8880     5.6660     0.0330 H     1 <1>   0.1500 
 14 C        2.7120     3.8670     0.0060 C.ar  1 <1>  -0.1500 
 15 H        1.7750     4.4180    -0.0330 H     1 <1>   0.1500 
 16 C        2.7130     2.4670     0.0180 C.ar  1 <1>   0.0000 
 17 C        1.4950     1.7670    -0.0200 C.ar  1 <1>  -0.1500 
 18 H        0.5520     2.3070    -0.0590 H     1 <1>   0.1500 
 19 C        1.4660     0.3740    -0.0090 C.ar  1 <1>  -0.1500 
 20 H        0.5160    -0.1520    -0.0390 H     1 <1>   0.1500 
 21 C        2.6570    -0.3370     0.0400 C.ar  1 <1>  -0.1500 
 22 H        2.6440    -1.4230     0.0490 H     1 <1>   0.1500 
 23 C        3.8760     0.3470     0.0790 C.ar  1 <1>  -0.1500 
 24 H        4.7830    -0.2520     0.1170 H     1 <1>   0.1500 
 25 C        3.9430     1.7600     0.0690 C.ar  1 <1>   0.0000 
@<TRIPOS>BOND
  1   1   2  1   
  2   2   3  1   
  3   3   4  1   
  4   3   5  1   
  5   3   6  1   
  6   6   7  1   
  7   6   8  1   
  8   6   9  1   
  9   9  10  ar  
 10   9  25  ar  
 11  10  11  1   
 12  10  12  ar  
 13  12  13  1   
 14  12  14  ar  
 15  14  15  1   
 16  14  16  ar  
 17  16  17  ar  
 18  16  25  ar  
 19  17  18  1   
 20  17  19  ar  
 21  19  20  1   
 22  19  21  ar  
 23  21  22  1   
 24  21  23  ar  
 25  23  24  1   
 26  23  25  ar  
@<TRIPOS>SUBSTRUCTURE
  1 ****  25 GROUP 4 **** **** 0

# MOE 2022.02 (io_trps.svl 2020.11)

@<TRIPOS>MOLECULE
SEL091
11 11 1 0 0 
SMALL
USER_CHARGES


@<TRIPOS>ATOM
  1 H       -4.0050     3.1250     0.0100 H     1 <1>   0.1500 
  2 C       -3.1170     2.5050     0.0070 C.2   1 <1>  -0.1500 
  3 C       -1.7700     2.9470     0.0110 C.2   1 <1>  -0.1500 
  4 H       -1.4250     3.9740     0.0190 H     1 <1>   0.1500 
  5 C       -0.9770     1.8230     0.0040 C.2   1 <1>  -0.1320 
  6 C        0.4360     1.6980     0.0050 C.1   1 <1>   0.5370 
  7 N        1.5880     1.5680     0.0050 N.1   1 <1>  -0.5570 
  8 N       -1.7880     0.7200    -0.0040 N.pl3 1 <1>   0.0330 
  9 H       -1.4730    -0.2430    -0.0100 H     1 <1>   0.2700 
 10 C       -3.0990     1.1260    -0.0030 C.2   1 <1>  -0.3020 
 11 H       -3.9030     0.4020    -0.0080 H     1 <1>   0.1500 
@<TRIPOS>BOND
  1   1   2  1   
  2   2   3  1   
  3   2  10  2   
  4   3   4  1   
  5   3   5  2   
  6   5   6  1   
  7   5   8  1   
  8   6   7  3   
  9   8   9  1   
 10   8  10  1   
 11  10  11  1   
@<TRIPOS>SUBSTRUCTURE
  1 ****   5 GROUP 4 **** **** 0

# MOE 2022.02 (io_trps.svl 2020.11)

@<TRIPOS>MOLECULE
SEL092
20 20 1 0 0 
SMALL
USER_CHARGES


@<TRIPOS>ATOM
  1 H        0.3040    -0.8010     0.1690 H     1 <1>   0.1500 
  2 C       -0.1610     0.1790     0.0980 C.ar  1 <1>   0.1600 
  3 N       -1.5010     0.1780     0.2730 N.ar  1 <1>  -0.6200 
  4 C       -2.1450     1.3690     0.2090 C.ar  1 <1>   0.1660 
  5 C       -3.6330     1.3180     0.4080 C.3   1 <1>   0.1440 
  6 H       -3.9230     1.9160     1.2780 H     1 <1>   0.0000 
  7 H       -4.1490     1.6900    -0.4810 H     1 <1>   0.0000 
  8 H       -3.9660     0.2900     0.5830 H     1 <1>   0.0000 
  9 C       -1.4780     2.5770    -0.0240 C.ar  1 <1>  -0.1440 
 10 C       -2.2040     3.8890    -0.0810 C.3   1 <1>   0.1440 
 11 H       -1.5200     4.7170    -0.2990 H     1 <1>   0.0000 
 12 H       -2.6820     4.1010     0.8800 H     1 <1>   0.0000 
 13 H       -2.9610     3.8730    -0.8700 H     1 <1>   0.0000 
 14 C       -0.0900     2.5340    -0.1990 C.ar  1 <1>  -0.1500 
 15 H        0.4650     3.4540    -0.3730 H     1 <1>   0.1500 
 16 C        0.5900     1.3170    -0.1520 C.ar  1 <1>  -0.1440 
 17 C        2.0760     1.2480    -0.3010 C.3   1 <1>   0.1440 
 18 H        2.3830     0.2860    -0.7240 H     1 <1>   0.0000 
 19 H        2.5580     1.3740     0.6740 H     1 <1>   0.0000 
 20 H        2.4370     2.0310    -0.9770 H     1 <1>   0.0000 
@<TRIPOS>BOND
  1   1   2  1   
  2   2   3  ar  
  3   2  16  ar  
  4   3   4  ar  
  5   4   5  1   
  6   4   9  ar  
  7   5   6  1   
  8   5   7  1   
  9   5   8  1   
 10   9  10  1   
 11   9  14  ar  
 12  10  11  1   
 13  10  12  1   
 14  10  13  1   
 15  14  15  1   
 16  14  16  ar  
 17  16  17  1   
 18  17  18  1   
 19  17  19  1   
 20  17  20  1   
@<TRIPOS>SUBSTRUCTURE
  1 ****   9 GROUP 4 **** **** 0

# MOE 2022.02 (io_trps.svl 2020.11)

@<TRIPOS>MOLECULE
SEL093
14 14 1 0 0 
SMALL
USER_CHARGES


@<TRIPOS>ATOM
  1 H        6.4830    -1.4160     0.0020 H     1 <1>   0.4500 
  2 O        6.1380    -0.5080     0.0020 O.3   1 <1>  -0.5320 
  3 C        4.7750    -0.5530     0.0020 C.ar  1 <1>   0.0820 
  4 C        4.0900    -1.7650     0.0030 C.ar  1 <1>  -0.1500 
  5 H        4.6200    -2.7130     0.0030 H     1 <1>   0.1500 
  6 C        2.6940    -1.7620     0.0030 C.ar  1 <1>  -0.1500 
  7 H        2.1530    -2.7050     0.0030 H     1 <1>   0.1500 
  8 C        1.9950    -0.5520     0.0030 C.ar  1 <1>   0.1770 
  9 CL       0.2700    -0.5950     0.0030 Cl    1 <1>  -0.1770 
 10 C        2.6960     0.6580     0.0030 C.ar  1 <1>   0.0820 
 11 O        2.0160     1.8460     0.0020 O.3   1 <1>  -0.5320 
 12 H        2.6530     2.5780     0.0020 H     1 <1>   0.4500 
 13 C        4.0910     0.6600     0.0020 C.ar  1 <1>  -0.1500 
 14 H        4.6570     1.5860     0.0020 H     1 <1>   0.1500 
@<TRIPOS>BOND
  1   1   2  1   
  2   2   3  1   
  3   3   4  ar  
  4   3  13  ar  
  5   4   5  1   
  6   4   6  ar  
  7   6   7  1   
  8   6   8  ar  
  9   8   9  1   
 10   8  10  ar  
 11  10  11  1   
 12  10  13  ar  
 13  11  12  1   
 14  13  14  1   
@<TRIPOS>SUBSTRUCTURE
  1 ****  10 GROUP 4 **** **** 0

# MOE 2022.02 (io_trps.svl 2020.11)

@<TRIPOS>MOLECULE
SEL094
25 24 1 0 0 
SMALL
USER_CHARGES


@<TRIPOS>ATOM
  1 H        1.6900    -1.3230    -2.1420 H     1 <1>   0.3600 
  2 N        1.7880    -1.8000    -1.2410 N.3   1 <1>  -0.9900 
  3 H        0.8370    -2.0300    -0.9440 H     1 <1>   0.3600 
  4 C        2.3390    -0.8060    -0.2620 C.3   1 <1>   0.3920 
  5 H        2.6350    -1.3590     0.6350 H     1 <1>   0.0000 
  6 C        1.2960     0.2310     0.1430 C.2   1 <1>   0.6590 
  7 O        1.5360     1.3910     0.4500 O.2   1 <1>  -0.5700 
  8 O        0.0470    -0.3320     0.1780 O.3   1 <1>  -0.4300 
  9 C       -0.9950     0.5680     0.5790 C.3   1 <1>   0.2800 
 10 H       -0.7870     0.9490     1.5850 H     1 <1>   0.0000 
 11 H       -1.0530     1.4020    -0.1290 H     1 <1>   0.0000 
 12 C       -2.3040    -0.1960     0.5820 C.3   1 <1>   0.0000 
 13 H       -3.1330     0.4510     0.8810 H     1 <1>   0.0000 
 14 H       -2.5140    -0.6040    -0.4130 H     1 <1>   0.0000 
 15 H       -2.2530    -1.0470     1.2700 H     1 <1>   0.0000 
 16 C        3.5550    -0.1180    -0.8660 C.2   1 <1>   0.6590 
 17 O        3.6350     0.2440    -2.0350 O.2   1 <1>  -0.5700 
 18 O        4.5310     0.0450     0.0730 O.3   1 <1>  -0.4300 
 19 C        5.7080     0.7030    -0.4130 C.3   1 <1>   0.2800 
 20 H        5.4510     1.7100    -0.7600 H     1 <1>   0.0000 
 21 H        6.1410     0.1260    -1.2380 H     1 <1>   0.0000 
 22 C        6.7040     0.7930     0.7260 C.3   1 <1>   0.0000 
 23 H        6.9550    -0.2060     1.0990 H     1 <1>   0.0000 
 24 H        6.2790     1.3490     1.5680 H     1 <1>   0.0000 
 25 H        7.6230     1.2890     0.4020 H     1 <1>   0.0000 
@<TRIPOS>BOND
  1   1   2  1   
  2   2   3  1   
  3   2   4  1   
  4   4   5  1   
  5   4   6  1   
  6   4  16  1   
  7   6   7  2   
  8   6   8  1   
  9   8   9  1   
 10   9  10  1   
 11   9  11  1   
 12   9  12  1   
 13  12  13  1   
 14  12  14  1   
 15  12  15  1   
 16  16  17  2   
 17  16  18  1   
 18  18  19  1   
 19  19  20  1   
 20  19  21  1   
 21  19  22  1   
 22  22  23  1   
 23  22  24  1   
 24  22  25  1   
@<TRIPOS>SUBSTRUCTURE
  1 ****   4 GROUP 4 **** **** 0

# MOE 2022.02 (io_trps.svl 2020.11)

@<TRIPOS>MOLECULE
SEL095
16 16 1 0 0 
SMALL
USER_CHARGES


@<TRIPOS>ATOM
  1 H        7.9680     0.6030    -0.0080 H     1 <1>   0.4000 
  2 O        7.5720    -0.2880    -0.0070 O.3   1 <1>  -0.3370 
  3 N        6.2020    -0.0050    -0.0060 N.2   1 <1>  -0.5130 
  4 C        5.5430    -1.1200    -0.0040 C.2   1 <1>   0.3040 
  5 H        6.0740    -2.0890    -0.0030 H     1 <1>   0.0600 
  6 C        4.0690    -1.1660    -0.0020 C.ar  1 <1>   0.0860 
  7 C        3.3130     0.0090    -0.0030 C.ar  1 <1>  -0.1500 
  8 H        3.8020     0.9810    -0.0060 H     1 <1>   0.1500 
  9 C        1.9200    -0.0640    -0.0010 C.ar  1 <1>  -0.1500 
 10 H        1.3290     0.8490    -0.0010 H     1 <1>   0.1500 
 11 C        1.2850    -1.3070     0.0030 C.ar  1 <1>  -0.1500 
 12 H        0.1990    -1.3600     0.0050 H     1 <1>   0.1500 
 13 C        2.0410    -2.4800     0.0050 C.ar  1 <1>  -0.1500 
 14 H        1.5420    -3.4460     0.0080 H     1 <1>   0.1500 
 15 C        3.4350    -2.4130     0.0030 C.ar  1 <1>  -0.1500 
 16 H        4.0130    -3.3330     0.0040 H     1 <1>   0.1500 
@<TRIPOS>BOND
  1   1   2  1   
  2   2   3  1   
  3   3   4  2   
  4   4   5  1   
  5   4   6  1   
  6   6   7  ar  
  7   6  15  ar  
  8   7   8  1   
  9   7   9  ar  
 10   9  10  1   
 11   9  11  ar  
 12  11  12  1   
 13  11  13  ar  
 14  13  14  1   
 15  13  15  ar  
 16  15  16  1   
@<TRIPOS>SUBSTRUCTURE
  1 ****   6 GROUP 4 **** **** 0

# MOE 2022.02 (io_trps.svl 2020.11)

@<TRIPOS>MOLECULE
SEL096
22 22 1 0 0 
SMALL
USER_CHARGES


@<TRIPOS>ATOM
  1 H       -0.7920     3.7590    -0.1110 H     1 <1>   0.1500 
  2 C       -0.7880     2.6730    -0.0530 C.ar  1 <1>  -0.1500 
  3 C       -2.0130     1.9910    -0.0340 C.ar  1 <1>   0.1000 
  4 N       -3.1930     2.7250    -0.0880 N.pl3 1 <1>  -0.9000 
  5 H       -3.1650     3.7320    -0.1440 H     1 <1>   0.4000 
  6 H       -4.0840     2.2600    -0.0710 H     1 <1>   0.4000 
  7 C       -2.0120     0.5850     0.0410 C.ar  1 <1>   0.1000 
  8 N       -3.1910    -0.1510     0.0610 N.pl3 1 <1>  -0.9000 
  9 H       -4.0830     0.3110     0.0160 H     1 <1>   0.4000 
 10 H       -3.1640    -1.1580     0.1200 H     1 <1>   0.4000 
 11 C       -0.7870    -0.0930     0.0980 C.ar  1 <1>  -0.1500 
 12 H       -0.7890    -1.1790     0.1550 H     1 <1>   0.1500 
 13 C        0.4400     0.5900     0.0840 C.ar  1 <1>  -0.1440 
 14 C        1.7210    -0.1950     0.1430 C.3   1 <1>   0.1440 
 15 H        1.5320    -1.2610     0.3080 H     1 <1>   0.0000 
 16 H        2.2690    -0.0950    -0.7990 H     1 <1>   0.0000 
 17 H        2.3480     0.1550     0.9690 H     1 <1>   0.0000 
 18 C        0.4400     1.9930    -0.0010 C.ar  1 <1>  -0.1440 
 19 C        1.7200     2.7810    -0.0180 C.3   1 <1>   0.1440 
 20 H        2.3750     2.4330    -0.8220 H     1 <1>   0.0000 
 21 H        2.2360     2.6840     0.9420 H     1 <1>   0.0000 
 22 H        1.5330     3.8470    -0.1910 H     1 <1>   0.0000 
@<TRIPOS>BOND
  1   1   2  1   
  2   2   3  ar  
  3   2  18  ar  
  4   3   4  1   
  5   3   7  ar  
  6   4   5  1   
  7   4   6  1   
  8   7   8  1   
  9   7  11  ar  
 10   8   9  1   
 11   8  10  1   
 12  11  12  1   
 13  11  13  ar  
 14  13  14  1   
 15  13  18  ar  
 16  14  15  1   
 17  14  16  1   
 18  14  17  1   
 19  18  19  1   
 20  19  20  1   
 21  19  21  1   
 22  19  22  1   
@<TRIPOS>SUBSTRUCTURE
  1 ****  11 GROUP 4 **** **** 0

# MOE 2022.02 (io_trps.svl 2020.11)

@<TRIPOS>MOLECULE
SEL097
21 21 1 0 0 
SMALL
USER_CHARGES


@<TRIPOS>ATOM
  1 H        0.5180     0.7460     0.0040 H     1 <1>   0.1500 
  2 C       -0.0580    -0.1570    -0.1850 C.ar  1 <1>  -0.1500 
  3 C       -1.4160    -0.1810     0.1510 C.ar  1 <1>  -0.1500 
  4 H       -1.8680     0.7030     0.5960 H     1 <1>   0.1500 
  5 C       -2.1860    -1.3270    -0.0860 C.ar  1 <1>   0.0860 
  6 C       -3.6320    -1.3040     0.2880 C.2   1 <1>   0.4230 
  7 O       -4.1100    -0.3050     0.8230 O.2   1 <1>  -0.5700 
  8 C       -4.4800    -2.5150     0.0030 C.3   1 <1>   0.0610 
  9 H       -5.5110    -2.3130     0.3100 H     1 <1>   0.0000 
 10 H       -4.4840    -2.7330    -1.0680 H     1 <1>   0.0000 
 11 H       -4.1170    -3.3730     0.5750 H     1 <1>   0.0000 
 12 C       -1.5810    -2.4480    -0.6670 C.ar  1 <1>  -0.1500 
 13 H       -2.1420    -3.3540    -0.8760 H     1 <1>   0.1500 
 14 C       -0.2220    -2.4200    -1.0000 C.ar  1 <1>  -0.1500 
 15 H        0.2240    -3.2950    -1.4680 H     1 <1>   0.1500 
 16 C        0.5490    -1.2800    -0.7520 C.ar  1 <1>   0.1020 
 17 S        2.2770    -1.2090    -1.1810 S.3   1 <1>  -0.3320 
 18 C        2.9010    -2.5970    -0.1970 C.3   1 <1>   0.2300 
 19 H        2.6240    -2.4790     0.8550 H     1 <1>   0.0000 
 20 H        2.5120    -3.5480    -0.5720 H     1 <1>   0.0000 
 21 H        3.9920    -2.6220    -0.2670 H     1 <1>   0.0000 
@<TRIPOS>BOND
  1   1   2  1   
  2   2   3  ar  
  3   2  16  ar  
  4   3   4  1   
  5   3   5  ar  
  6   5   6  1   
  7   5  12  ar  
  8   6   7  2   
  9   6   8  1   
 10   8   9  1   
 11   8  10  1   
 12   8  11  1   
 13  12  13  1   
 14  12  14  ar  
 15  14  15  1   
 16  14  16  ar  
 17  16  17  1   
 18  17  18  1   
 19  18  19  1   
 20  18  20  1   
 21  18  21  1   
@<TRIPOS>SUBSTRUCTURE
  1 ****   5 GROUP 4 **** **** 0

# MOE 2022.02 (io_trps.svl 2020.11)

@<TRIPOS>MOLECULE
SEL098
20 20 1 0 0 
SMALL
USER_CHARGES


@<TRIPOS>ATOM
  1 H       -5.8530     3.6720     0.0170 H     1 <1>   0.1500 
  2 C       -4.7680     3.7410     0.0290 C.ar  1 <1>  -0.1500 
  3 C       -4.1410     4.9320    -0.3320 C.ar  1 <1>  -0.1500 
  4 H       -4.7380     5.7920    -0.6230 H     1 <1>   0.1500 
  5 C       -2.7480     5.0210    -0.3180 C.ar  1 <1>  -0.1500 
  6 H       -2.2790     5.9620    -0.5980 H     1 <1>   0.1500 
  7 C       -1.9650     3.9160     0.0480 C.ar  1 <1>  -0.1440 
  8 C       -0.4610     4.0370     0.1020 C.3   1 <1>   0.4240 
  9 H       -0.1690     4.2580     1.1350 H     1 <1>   0.0000 
 10 H       -0.1310     4.8440    -0.5620 H     1 <1>   0.0000 
 11 O        0.1520     2.8140    -0.3300 O.3   1 <1>  -0.4300 
 12 C        1.4940     2.6350    -0.2990 C.2   1 <1>   0.7800 
 13 O        2.0160     1.5720    -0.6120 O.2   1 <1>  -0.5700 
 14 N        2.2590     3.6890     0.0910 N.am  1 <1>  -0.8000 
 15 H        3.2570     3.5310     0.1070 H     1 <1>   0.3700 
 16 H        1.9160     4.5950     0.3570 H     1 <1>   0.3700 
 17 C       -2.6100     2.7270     0.4210 C.ar  1 <1>  -0.1500 
 18 H       -2.0280     1.8570     0.7200 H     1 <1>   0.1500 
 19 C       -4.0030     2.6400     0.4060 C.ar  1 <1>  -0.1500 
 20 H       -4.4910     1.7100     0.6890 H     1 <1>   0.1500 
@<TRIPOS>BOND
  1   1   2  1   
  2   2   3  ar  
  3   2  19  ar  
  4   3   4  1   
  5   3   5  ar  
  6   5   6  1   
  7   5   7  ar  
  8   7   8  1   
  9   7  17  ar  
 10   8   9  1   
 11   8  10  1   
 12   8  11  1   
 13  11  12  1   
 14  12  13  2   
 15  12  14  am  
 16  14  15  1   
 17  14  16  1   
 18  17  18  1   
 19  17  19  ar  
 20  19  20  1   
@<TRIPOS>SUBSTRUCTURE
  1 ****   7 GROUP 4 **** **** 0

# MOE 2022.02 (io_trps.svl 2020.11)

@<TRIPOS>MOLECULE
SEL099
16 16 1 0 0 
SMALL
USER_CHARGES


@<TRIPOS>ATOM
  1 H       -4.9110     2.2710    -0.0070 H     1 <1>   0.1500 
  2 C       -3.8250     2.2980    -0.0050 C.ar  1 <1>  -0.1500 
  3 C       -3.0990     1.1090    -0.0080 C.ar  1 <1>  -0.1500 
  4 H       -3.6160     0.1530    -0.0120 H     1 <1>   0.1500 
  5 C       -1.7030     1.1450    -0.0050 C.ar  1 <1>  -0.1500 
  6 H       -1.1470     0.2100    -0.0070 H     1 <1>   0.1500 
  7 C       -1.0190     2.3710     0.0000 C.ar  1 <1>   0.0860 
  8 C        0.4730     2.3310     0.0030 C.2   1 <1>   0.5440 
  9 O        1.0860     1.2690     0.0070 O.2   1 <1>  -0.5700 
 10 N        1.1630     3.5110     0.0010 N.am  1 <1>  -0.8000 
 11 H        2.1730     3.4450     0.0040 H     1 <1>   0.3700 
 12 H        0.7510     4.4300    -0.0030 H     1 <1>   0.3700 
 13 C       -1.7580     3.5610     0.0030 C.ar  1 <1>  -0.1500 
 14 H       -1.2800     4.5330     0.0080 H     1 <1>   0.1500 
 15 C       -3.1560     3.5210     0.0010 C.ar  1 <1>  -0.1500 
 16 H       -3.7260     4.4480     0.0030 H     1 <1>   0.1500 
@<TRIPOS>BOND
  1   1   2  1   
  2   2   3  ar  
  3   2  15  ar  
  4   3   4  1   
  5   3   5  ar  
  6   5   6  1   
  7   5   7  ar  
  8   7   8  1   
  9   7  13  ar  
 10   8   9  2   
 11   8  10  am  
 12  10  11  1   
 13  10  12  1   
 14  13  14  1   
 15  13  15  ar  
 16  15  16  1   
@<TRIPOS>SUBSTRUCTURE
  1 ****   7 GROUP 4 **** **** 0

# MOE 2022.02 (io_trps.svl 2020.11)

@<TRIPOS>MOLECULE
SEL100
23 23 1 0 0 
SMALL
USER_CHARGES


@<TRIPOS>ATOM
  1 H       -1.3800    -6.8040     1.2180 H     1 <1>   0.1500 
  2 C       -1.4270    -5.7780     0.8590 C.ar  1 <1>  -0.1500 
  3 C       -2.6410    -5.2490     0.4210 C.ar  1 <1>  -0.1500 
  4 H       -3.5380    -5.8640     0.4360 H     1 <1>   0.1500 
  5 C       -2.7050    -3.9340    -0.0410 C.ar  1 <1>  -0.1500 
  6 H       -3.6570    -3.5400    -0.3910 H     1 <1>   0.1500 
  7 C       -1.5490    -3.1410    -0.0570 C.ar  1 <1>  -0.0090 
  8 S       -1.6420    -1.5070    -0.7190 S.o2  1 <1>   1.4470 
  9 O       -2.9900    -1.2730    -1.1890 O.2   1 <1>  -0.6500 
 10 O       -0.4990    -1.2790    -1.5700 O.2   1 <1>  -0.6500 
 11 N       -1.4800    -0.5640     0.6510 N.am  1 <1>  -0.9780 
 12 H       -0.5240    -0.2060     0.7360 H     1 <1>   0.4200 
 13 H       -2.2270     0.1230     0.7330 H     1 <1>   0.4200 
 14 C       -0.3270    -3.6670     0.3760 C.ar  1 <1>   0.0860 
 15 C        0.9140    -2.8600     0.4120 C.2   1 <1>   0.6340 
 16 O        1.0050    -1.7550     0.9200 O.2   1 <1>  -0.5700 
 17 O        1.8970    -3.5570    -0.2080 O.3   1 <1>  -0.4300 
 18 C        3.1370    -2.8540    -0.2910 C.3   1 <1>   0.2800 
 19 H        3.8490    -3.4840    -0.8320 H     1 <1>   0.0000 
 20 H        3.5350    -2.6620     0.7100 H     1 <1>   0.0000 
 21 H        3.0130    -1.9180    -0.8450 H     1 <1>   0.0000 
 22 C       -0.2730    -4.9920     0.8380 C.ar  1 <1>  -0.1500 
 23 H        0.6670    -5.4150     1.1890 H     1 <1>   0.1500 
@<TRIPOS>BOND
  1   1   2  1   
  2   2   3  ar  
  3   2  22  ar  
  4   3   4  1   
  5   3   5  ar  
  6   5   6  1   
  7   5   7  ar  
  8   7   8  1   
  9   7  14  ar  
 10   8   9  2   
 11   8  10  2   
 12   8  11  am  
 13  11  12  1   
 14  11  13  1   
 15  14  15  1   
 16  14  22  ar  
 17  15  16  2   
 18  15  17  1   
 19  17  18  1   
 20  18  19  1   
 21  18  20  1   
 22  18  21  1   
 23  22  23  1   
@<TRIPOS>SUBSTRUCTURE
  1 ****  14 GROUP 4 **** **** 0

# MOE 2022.02 (io_trps.svl 2020.11)

@<TRIPOS>MOLECULE
SEL101
19 19 1 0 0 
SMALL
USER_CHARGES


@<TRIPOS>ATOM
  1 H        3.2630    -2.7940     0.3860 H     1 <1>   0.0000 
  2 C        2.3220    -2.2390     0.4650 C.3   1 <1>   0.0000 
  3 H        1.5630    -2.7910    -0.0990 H     1 <1>   0.0000 
  4 H        2.0210    -2.2390     1.5190 H     1 <1>   0.0000 
  5 C        2.4760    -0.8160    -0.0630 C.3   1 <1>   0.1220 
  6 H        2.7770    -0.8590    -1.1160 H     1 <1>   0.0000 
  7 C        3.5740    -0.0720     0.6810 C.2   1 <1>   0.4480 
  8 O        4.4600    -0.6520     1.3090 O.2   1 <1>  -0.5700 
  9 C        3.6200     1.4300     0.5070 C.3   1 <1>   0.0610 
 10 H        4.3400     1.8490     1.2180 H     1 <1>   0.0000 
 11 H        3.9720     1.6500    -0.5070 H     1 <1>   0.0000 
 12 C        2.2450     2.0280     0.7580 C.3   1 <1>   0.0000 
 13 H        2.2850     3.1140     0.6250 H     1 <1>   0.0000 
 14 H        1.9470     1.8350     1.7960 H     1 <1>   0.0000 
 15 C        1.2110     1.4340    -0.1850 C.3   1 <1>   0.0610 
 16 H        0.2250     1.8560     0.0350 H     1 <1>   0.0000 
 17 H        1.4520     1.6530    -1.2310 H     1 <1>   0.0000 
 18 C        1.1530    -0.0680    -0.0120 C.2   1 <1>   0.4480 
 19 O        0.0670    -0.6440     0.0540 O.2   1 <1>  -0.5700 
@<TRIPOS>BOND
  1   1   2  1   
  2   2   3  1   
  3   2   4  1   
  4   2   5  1   
  5   5   6  1   
  6   5   7  1   
  7   5  18  1   
  8   7   8  2   
  9   7   9  1   
 10   9  10  1   
 11   9  11  1   
 12   9  12  1   
 13  12  13  1   
 14  12  14  1   
 15  12  15  1   
 16  15  16  1   
 17  15  17  1   
 18  15  18  1   
 19  18  19  2   
@<TRIPOS>SUBSTRUCTURE
  1 ****   5 GROUP 4 **** **** 0

# MOE 2022.02 (io_trps.svl 2020.11)

@<TRIPOS>MOLECULE
SEL102
25 25 1 0 0 
SMALL
USER_CHARGES


@<TRIPOS>ATOM
  1 H        8.0710     0.0980     0.6140 H     1 <1>   0.0000 
  2 C        7.1680     0.7140     0.6690 C.3   1 <1>   0.0610 
  3 H        7.4380     1.7230     0.9880 H     1 <1>   0.0000 
  4 H        6.4930     0.2580     1.3980 H     1 <1>   0.0000 
  5 C        6.5130     0.7600    -0.6870 C.2   1 <1>   0.4480 
  6 O        7.1850     0.6570    -1.7160 O.2   1 <1>  -0.5700 
  7 C        5.0120     0.8790    -0.7530 C.3   1 <1>   0.1220 
  8 H        4.7300     0.8890    -1.8120 H     1 <1>   0.0000 
  9 H        4.5870    -0.0170    -0.2880 H     1 <1>   0.0000 
 10 C        4.4380     2.1070    -0.0910 C.2   1 <1>   0.5690 
 11 O        5.1520     2.8800     0.5480 O.2   1 <1>  -0.5700 
 12 N        3.0740     2.3150    -0.2240 N.am  1 <1>  -0.6600 
 13 C        2.4620     3.5190     0.3500 C.3   1 <1>   0.3000 
 14 H        2.1810     4.1540    -0.4990 H     1 <1>   0.0000 
 15 H        3.1710     4.0770     0.9690 H     1 <1>   0.0000 
 16 C        1.2160     3.1640     1.1650 C.3   1 <1>   0.2800 
 17 H        1.4800     2.5900     2.0610 H     1 <1>   0.0000 
 18 H        0.7070     4.0770     1.4890 H     1 <1>   0.0000 
 19 O        0.2870     2.4000     0.3790 O.3   1 <1>  -0.5600 
 20 C        0.8870     1.1750    -0.0660 C.3   1 <1>   0.2800 
 21 H        0.1380     0.6280    -0.6470 H     1 <1>   0.0000 
 22 H        1.1440     0.5670     0.8100 H     1 <1>   0.0000 
 23 C        2.1250     1.4450    -0.9290 C.3   1 <1>   0.3000 
 24 H        2.5800     0.4990    -1.2280 H     1 <1>   0.0000 
 25 H        1.8330     1.9840    -1.8380 H     1 <1>   0.0000 
@<TRIPOS>BOND
  1   1   2  1   
  2   2   3  1   
  3   2   4  1   
  4   2   5  1   
  5   5   6  2   
  6   5   7  1   
  7   7   8  1   
  8   7   9  1   
  9   7  10  1   
 10  10  11  2   
 11  10  12  am  
 12  12  13  1   
 13  12  23  1   
 14  13  14  1   
 15  13  15  1   
 16  13  16  1   
 17  16  17  1   
 18  16  18  1   
 19  16  19  1   
 20  19  20  1   
 21  20  21  1   
 22  20  22  1   
 23  20  23  1   
 24  23  24  1   
 25  23  25  1   
@<TRIPOS>SUBSTRUCTURE
  1 ****  10 GROUP 4 **** **** 0

# MOE 2022.02 (io_trps.svl 2020.11)

@<TRIPOS>MOLECULE
SEL103
15 15 1 0 0 
SMALL
USER_CHARGES


@<TRIPOS>ATOM
  1 H        5.5380    -1.0610     0.0060 H     1 <1>   0.5000 
  2 O        4.6000    -0.7830     0.0060 O.3   1 <1>  -0.6500 
  3 C        3.9270    -1.9500     0.0020 C.2   1 <1>   0.6340 
  4 O        4.5600    -2.9940    -0.0010 O.2   1 <1>  -0.5700 
  5 C        2.4290    -1.8350     0.0000 C.ar  1 <1>   0.3960 
  6 N        1.7900    -3.0440     0.0010 N.ar  1 <1>  -0.6200 
  7 C        0.4420    -3.0450     0.0000 C.ar  1 <1>   0.1600 
  8 H       -0.0200    -4.0280     0.0010 H     1 <1>   0.1500 
  9 C       -0.3230    -1.8930    -0.0020 C.ar  1 <1>  -0.1500 
 10 H       -1.4070    -1.9510    -0.0020 H     1 <1>   0.1500 
 11 C        0.3310    -0.6650    -0.0030 C.ar  1 <1>  -0.1500 
 12 H       -0.2600     0.2460    -0.0040 H     1 <1>   0.1500 
 13 C        1.7270    -0.6250    -0.0020 C.ar  1 <1>   0.0820 
 14 O        2.3420     0.5930    -0.0030 O.3   1 <1>  -0.5320 
 15 H        1.6820     1.3040    -0.0040 H     1 <1>   0.4500 
@<TRIPOS>BOND
  1   1   2  1   
  2   2   3  1   
  3   3   4  2   
  4   3   5  1   
  5   5   6  ar  
  6   5  13  ar  
  7   6   7  ar  
  8   7   8  1   
  9   7   9  ar  
 10   9  10  1   
 11   9  11  ar  
 12  11  12  1   
 13  11  13  ar  
 14  13  14  1   
 15  14  15  1   
@<TRIPOS>SUBSTRUCTURE
  1 ****   5 GROUP 4 **** **** 0

# MOE 2022.02 (io_trps.svl 2020.11)

@<TRIPOS>MOLECULE
SEL104
21 21 1 0 0 
SMALL
USER_CHARGES


@<TRIPOS>ATOM
  1 H       -5.9310     3.7330     0.0920 H     1 <1>   0.1500 
  2 C       -4.8510     3.7980    -0.0160 C.ar  1 <1>  -0.1500 
  3 C       -4.1310     4.7310     0.7280 C.ar  1 <1>  -0.1500 
  4 H       -4.6490     5.3920     1.4180 H     1 <1>   0.1500 
  5 C       -2.7440     4.8140     0.5910 C.ar  1 <1>  -0.1500 
  6 H       -2.1950     5.5390     1.1860 H     1 <1>   0.1500 
  7 C       -2.0670     3.9700    -0.3000 C.ar  1 <1>  -0.1440 
  8 C       -0.5700     4.0380    -0.4270 C.3   1 <1>   0.4440 
  9 H       -0.2570     3.7890    -1.4480 H     1 <1>   0.0000 
 10 H       -0.2090     5.0530    -0.2210 H     1 <1>   0.0000 
 11 N        0.0760     3.1230     0.4890 N.am  1 <1>  -0.7300 
 12 H       -0.5250     2.5520     1.0740 H     1 <1>   0.3700 
 13 C        1.3970     2.9270     0.6690 C.2   1 <1>   0.5000 
 14 S        1.9560     1.8210     1.7720 S.2   1 <1>  -0.3800 
 15 N        2.2550     3.6530    -0.0710 N.am  1 <1>  -0.8000 
 16 H        3.2490     3.5090     0.0590 H     1 <1>   0.3700 
 17 H        1.9670     4.3370    -0.7530 H     1 <1>   0.3700 
 18 C       -2.8000     3.0270    -1.0340 C.ar  1 <1>  -0.1500 
 19 H       -2.2930     2.3470    -1.7160 H     1 <1>   0.1500 
 20 C       -4.1860     2.9450    -0.8950 C.ar  1 <1>  -0.1500 
 21 H       -4.7480     2.2130    -1.4700 H     1 <1>   0.1500 
@<TRIPOS>BOND
  1   1   2  1   
  2   2   3  ar  
  3   2  20  ar  
  4   3   4  1   
  5   3   5  ar  
  6   5   6  1   
  7   5   7  ar  
  8   7   8  1   
  9   7  18  ar  
 10   8   9  1   
 11   8  10  1   
 12   8  11  1   
 13  11  12  1   
 14  11  13  am  
 15  13  14  2   
 16  13  15  am  
 17  15  16  1   
 18  15  17  1   
 19  18  19  1   
 20  18  20  ar  
 21  20  21  1   
@<TRIPOS>SUBSTRUCTURE
  1 ****   7 GROUP 4 **** **** 0

# MOE 2022.02 (io_trps.svl 2020.11)

@<TRIPOS>MOLECULE
SEL105
22 22 1 0 0 
SMALL
USER_CHARGES


@<TRIPOS>ATOM
  1 H       -5.9970    -2.1980    -0.2480 H     1 <1>   0.1500 
  2 C       -4.9200    -2.2260    -0.0950 C.ar  1 <1>  -0.1500 
  3 C       -4.3550    -3.2370     0.6860 C.ar  1 <1>  -0.1500 
  4 H       -4.9920    -3.9900     1.1420 H     1 <1>   0.1500 
  5 C       -2.9750    -3.2720     0.8900 C.ar  1 <1>  -0.1500 
  6 H       -2.5390    -4.0440     1.5180 H     1 <1>   0.1500 
  7 C       -2.1630    -2.2980     0.2970 C.ar  1 <1>   0.0860 
  8 C       -0.7010    -2.2930     0.5240 C.2   1 <1>   0.5440 
  9 O       -0.2130    -1.2830     1.0260 O.2   1 <1>  -0.5700 
 10 N        0.0430    -3.4160     0.1680 N.am  1 <1>  -0.6600 
 11 C        1.4340    -3.4920     0.5840 C.3   1 <1>   0.3000 
 12 H        1.5910    -4.4340     1.1180 H     1 <1>   0.0000 
 13 H        2.0680    -3.4680    -0.3070 H     1 <1>   0.0000 
 14 H        1.7140    -2.6650     1.2420 H     1 <1>   0.0000 
 15 C       -0.4560    -4.5370    -0.6160 C.3   1 <1>   0.3000 
 16 H       -1.3820    -4.2920    -1.1400 H     1 <1>   0.0000 
 17 H       -0.6250    -5.3840     0.0550 H     1 <1>   0.0000 
 18 H        0.2940    -4.8120    -1.3630 H     1 <1>   0.0000 
 19 C       -2.7310    -1.2710    -0.4630 C.ar  1 <1>  -0.1500 
 20 H       -2.0990    -0.4960    -0.8910 H     1 <1>   0.1500 
 21 C       -4.1110    -1.2420    -0.6650 C.ar  1 <1>  -0.1500 
 22 H       -4.5570    -0.4470    -1.2580 H     1 <1>   0.1500 
@<TRIPOS>BOND
  1   1   2  1   
  2   2   3  ar  
  3   2  21  ar  
  4   3   4  1   
  5   3   5  ar  
  6   5   6  1   
  7   5   7  ar  
  8   7   8  1   
  9   7  19  ar  
 10   8   9  2   
 11   8  10  am  
 12  10  11  1   
 13  10  15  1   
 14  11  12  1   
 15  11  13  1   
 16  11  14  1   
 17  15  16  1   
 18  15  17  1   
 19  15  18  1   
 20  19  20  1   
 21  19  21  ar  
 22  21  22  1   
@<TRIPOS>SUBSTRUCTURE
  1 ****   7 GROUP 4 **** **** 0

# MOE 2022.02 (io_trps.svl 2020.11)

@<TRIPOS>MOLECULE
SEL106
24 24 1 0 0 
SMALL
USER_CHARGES


@<TRIPOS>ATOM
  1 H        8.4750    -0.5450    -1.2750 H     1 <1>   0.5000 
  2 O        7.9850    -0.6050    -0.4270 O.3   1 <1>  -0.6500 
  3 C        6.8040    -0.0050    -0.6990 C.2   1 <1>   0.6590 
  4 O        6.5970     0.4430    -1.8130 O.2   1 <1>  -0.5700 
  5 C        5.8970     0.0050     0.5060 C.3   1 <1>   0.2040 
  6 H        5.7640    -1.0280     0.8480 H     1 <1>   0.0000 
  7 H        6.4000     0.5550     1.3110 H     1 <1>   0.0000 
  8 C        4.5430     0.6220     0.2510 C.ar  1 <1>  -0.1440 
  9 C        3.4770    -0.1680    -0.2030 C.ar  1 <1>  -0.1500 
 10 H        3.6250    -1.2340    -0.3640 H     1 <1>   0.1500 
 11 C        2.2240     0.4000    -0.4630 C.ar  1 <1>  -0.1440 
 12 C        1.0840    -0.4590    -0.9240 C.3   1 <1>   0.1440 
 13 H        0.3800     0.1180    -1.5330 H     1 <1>   0.0000 
 14 H        0.5510    -0.8690    -0.0600 H     1 <1>   0.0000 
 15 H        1.4450    -1.2870    -1.5430 H     1 <1>   0.0000 
 16 C        2.0340     1.7690    -0.2410 C.ar  1 <1>  -0.1500 
 17 H        1.0600     2.2150    -0.4330 H     1 <1>   0.1500 
 18 C        3.0850     2.5740     0.2170 C.ar  1 <1>  -0.1440 
 19 C        2.8850     4.0490     0.4000 C.3   1 <1>   0.1440 
 20 H        3.5260     4.4330     1.2010 H     1 <1>   0.0000 
 21 H        3.1240     4.5770    -0.5280 H     1 <1>   0.0000 
 22 H        1.8500     4.2730     0.6780 H     1 <1>   0.0000 
 23 C        4.3400     1.9960     0.4440 C.ar  1 <1>  -0.1500 
 24 H        5.1650     2.6230     0.7740 H     1 <1>   0.1500 
@<TRIPOS>BOND
  1   1   2  1   
  2   2   3  1   
  3   3   4  2   
  4   3   5  1   
  5   5   6  1   
  6   5   7  1   
  7   5   8  1   
  8   8   9  ar  
  9   8  23  ar  
 10   9  10  1   
 11   9  11  ar  
 12  11  12  1   
 13  11  16  ar  
 14  12  13  1   
 15  12  14  1   
 16  12  15  1   
 17  16  17  1   
 18  16  18  ar  
 19  18  19  1   
 20  18  23  ar  
 21  19  20  1   
 22  19  21  1   
 23  19  22  1   
 24  23  24  1   
@<TRIPOS>SUBSTRUCTURE
  1 ****   8 GROUP 4 **** **** 0

# MOE 2022.02 (io_trps.svl 2020.11)

@<TRIPOS>MOLECULE
SEL107
22 21 1 0 0 
SMALL
USER_CHARGES


@<TRIPOS>ATOM
  1 H       -0.6440    -1.5560     0.2390 H     1 <1>   0.5000 
  2 O        0.1210    -2.1120    -0.0210 O.3   1 <1>  -0.6500 
  3 C        1.1890    -1.3160     0.1910 C.2   1 <1>   0.6590 
  4 O        1.0420    -0.1800     0.6050 O.2   1 <1>  -0.5700 
  5 C        2.4760    -2.0070    -0.1660 C.3   1 <1>   0.0610 
  6 H        2.4880    -2.1640    -1.2500 H     1 <1>   0.0000 
  7 H        2.4940    -2.9810     0.3360 H     1 <1>   0.0000 
  8 C        3.6940    -1.1880     0.2600 C.3   1 <1>   0.0000 
  9 H        3.6680    -1.0310     1.3460 H     1 <1>   0.0000 
 10 H        3.6390    -0.1980    -0.2070 H     1 <1>   0.0000 
 11 C        4.9950    -1.8970    -0.1360 C.3   1 <1>   0.2700 
 12 H        5.0470    -1.9990    -1.2280 H     1 <1>   0.0000 
 13 H        4.9530    -2.9150     0.2760 H     1 <1>   0.0000 
 14 N        6.1990    -1.2290     0.3850 N.3   1 <1>  -0.8100 
 15 C        6.4180     0.0800    -0.2320 C.3   1 <1>   0.2700 
 16 H        7.3400     0.5350     0.1470 H     1 <1>   0.0000 
 17 H        6.4920     0.0150    -1.3240 H     1 <1>   0.0000 
 18 H        5.6150     0.7790     0.0210 H     1 <1>   0.0000 
 19 C        7.3750    -2.0770     0.1700 C.3   1 <1>   0.2700 
 20 H        7.5560    -2.2690    -0.8940 H     1 <1>   0.0000 
 21 H        7.2550    -3.0400     0.6800 H     1 <1>   0.0000 
 22 H        8.2700    -1.6110     0.5950 H     1 <1>   0.0000 
@<TRIPOS>BOND
  1   1   2  1   
  2   2   3  1   
  3   3   4  2   
  4   3   5  1   
  5   5   6  1   
  6   5   7  1   
  7   5   8  1   
  8   8   9  1   
  9   8  10  1   
 10   8  11  1   
 11  11  12  1   
 12  11  13  1   
 13  11  14  1   
 14  14  15  1   
 15  14  19  1   
 16  15  16  1   
 17  15  17  1   
 18  15  18  1   
 19  19  20  1   
 20  19  21  1   
 21  19  22  1   
@<TRIPOS>SUBSTRUCTURE
  1 ****   8 GROUP 4 **** **** 0

# MOE 2022.02 (io_trps.svl 2020.11)

@<TRIPOS>MOLECULE
SEL108
16 16 1 0 0 
SMALL
USER_CHARGES


@<TRIPOS>ATOM
  1 H       -4.7350    -4.1510     0.4570 H     1 <1>   0.1500 
  2 C       -3.8000    -3.6020     0.3770 C.ar  1 <1>  -0.1500 
  3 C       -2.6110    -4.2780     0.1240 C.ar  1 <1>  -0.1500 
  4 H       -2.6170    -5.3600     0.0060 H     1 <1>   0.1500 
  5 C       -1.4070    -3.5750     0.0190 C.ar  1 <1>  -0.1500 
  6 H       -0.5050    -4.1520    -0.1770 H     1 <1>   0.1500 
  7 C       -1.3690    -2.1750     0.1640 C.ar  1 <1>  -0.1440 
  8 C       -0.0770    -1.3830     0.0630 C.3   1 <1>   0.3440 
  9 H        0.1000    -0.8900     1.0270 H     1 <1>   0.0000 
 10 H       -0.2070    -0.6000    -0.6950 H     1 <1>   0.0000 
 11 C        1.1320    -2.1440    -0.2890 C.1   1 <1>   0.3570 
 12 N        2.0880    -2.7430    -0.5650 N.1   1 <1>  -0.5570 
 13 C       -2.5840    -1.5110     0.4250 C.ar  1 <1>   0.1770 
 14 CL      -2.6520     0.2050     0.6360 Cl    1 <1>  -0.1770 
 15 C       -3.7870    -2.2180     0.5280 C.ar  1 <1>  -0.1500 
 16 H       -4.7180    -1.6940     0.7290 H     1 <1>   0.1500 
@<TRIPOS>BOND
  1   1   2  1   
  2   2   3  ar  
  3   2  15  ar  
  4   3   4  1   
  5   3   5  ar  
  6   5   6  1   
  7   5   7  ar  
  8   7   8  1   
  9   7  13  ar  
 10   8   9  1   
 11   8  10  1   
 12   8  11  1   
 13  11  12  3   
 14  13  14  1   
 15  13  15  ar  
 16  15  16  1   
@<TRIPOS>SUBSTRUCTURE
  1 ****   7 GROUP 4 **** **** 0

# MOE 2022.02 (io_trps.svl 2020.11)

@<TRIPOS>MOLECULE
SEL109
20 20 1 0 0 
SMALL
USER_CHARGES


@<TRIPOS>ATOM
  1 H       -6.0610     1.3460     1.4170 H     1 <1>   0.1500 
  2 C       -5.1550     1.8030     1.0250 C.ar  1 <1>  -0.1500 
  3 C       -3.9550     1.0920     1.0370 C.ar  1 <1>  -0.1500 
  4 H       -3.9290     0.0810     1.4360 H     1 <1>   0.1500 
  5 C       -2.7880     1.6740     0.5330 C.ar  1 <1>  -0.1500 
  6 H       -1.8740     1.0860     0.5500 H     1 <1>   0.1500 
  7 C       -2.8220     2.9750     0.0140 C.ar  1 <1>   0.0860 
  8 C       -1.6110     3.6450    -0.5250 C.2   1 <1>   0.4840 
  9 O       -1.6540     4.7680    -1.0160 O.2   1 <1>  -0.5700 
 10 C       -0.2750     2.9280    -0.4560 C.2   1 <1>   0.7200 
 11 O       -0.0100     1.9580    -1.1420 O.2   1 <1>  -0.5700 
 12 O        0.4940     3.5170     0.4830 O.3   1 <1>  -0.4300 
 13 C        1.7900     2.9340     0.6150 C.3   1 <1>   0.2800 
 14 H        1.7080     1.8980     0.9580 H     1 <1>   0.0000 
 15 H        2.3350     2.9860    -0.3330 H     1 <1>   0.0000 
 16 H        2.3440     3.5050     1.3640 H     1 <1>   0.0000 
 17 C       -4.0330     3.6820     0.0040 C.ar  1 <1>  -0.1500 
 18 H       -4.0770     4.6940    -0.3960 H     1 <1>   0.1500 
 19 C       -5.1950     3.0960     0.5090 C.ar  1 <1>  -0.1500 
 20 H       -6.1310     3.6500     0.4980 H     1 <1>   0.1500 
@<TRIPOS>BOND
  1   1   2  1   
  2   2   3  ar  
  3   2  19  ar  
  4   3   4  1   
  5   3   5  ar  
  6   5   6  1   
  7   5   7  ar  
  8   7   8  1   
  9   7  17  ar  
 10   8   9  2   
 11   8  10  1   
 12  10  11  2   
 13  10  12  1   
 14  12  13  1   
 15  13  14  1   
 16  13  15  1   
 17  13  16  1   
 18  17  18  1   
 19  17  19  ar  
 20  19  20  1   
@<TRIPOS>SUBSTRUCTURE
  1 ****   7 GROUP 4 **** **** 0

# MOE 2022.02 (io_trps.svl 2020.11)

@<TRIPOS>MOLECULE
SEL110
25 24 1 0 0 
SMALL
USER_CHARGES


@<TRIPOS>ATOM
  1 H       -0.8270    -2.1440    -0.4200 H     1 <1>   0.0000 
  2 C        0.1940    -1.7520    -0.4600 C.3   1 <1>   0.2800 
  3 H        0.1820    -0.7160    -0.1090 H     1 <1>   0.0000 
  4 H        0.5470    -1.8090    -1.4940 H     1 <1>   0.0000 
  5 O        1.0100    -2.5590     0.3920 O.3   1 <1>  -0.4300 
  6 C        2.3170    -2.1710     0.4410 C.2   1 <1>   0.6590 
  7 O        2.7950    -1.2390    -0.1890 O.2   1 <1>  -0.5700 
  8 C        3.0740    -3.0790     1.3600 C.3   1 <1>   0.1220 
  9 H        3.0530    -4.1010     0.9670 H     1 <1>   0.0000 
 10 H        2.5840    -3.0720     2.3410 H     1 <1>   0.0000 
 11 C        4.5120    -2.6740     1.5550 C.2   1 <1>   0.4480 
 12 O        4.8900    -2.2110     2.6330 O.2   1 <1>  -0.5700 
 13 C        5.4640    -2.9170     0.3930 C.3   1 <1>   0.0610 
 14 H        5.5040    -3.9980     0.2170 H     1 <1>   0.0000 
 15 H        5.0590    -2.4360    -0.5020 H     1 <1>   0.0000 
 16 C        6.8670    -2.3820     0.6690 C.3   1 <1>   0.0000 
 17 H        6.8160    -1.3070     0.8830 H     1 <1>   0.0000 
 18 H        7.2780    -2.8640     1.5660 H     1 <1>   0.0000 
 19 C        7.7990    -2.6270    -0.5170 C.3   1 <1>   0.0000 
 20 H        7.8610    -3.7010    -0.7270 H     1 <1>   0.0000 
 21 H        7.3950    -2.1440    -1.4140 H     1 <1>   0.0000 
 22 C        9.1960    -2.0900    -0.2480 C.3   1 <1>   0.0000 
 23 H        9.8460    -2.2760    -1.1090 H     1 <1>   0.0000 
 24 H        9.6420    -2.5770     0.6250 H     1 <1>   0.0000 
 25 H        9.1730    -1.0110    -0.0660 H     1 <1>   0.0000 
@<TRIPOS>BOND
  1   1   2  1   
  2   2   3  1   
  3   2   4  1   
  4   2   5  1   
  5   5   6  1   
  6   6   7  2   
  7   6   8  1   
  8   8   9  1   
  9   8  10  1   
 10   8  11  1   
 11  11  12  2   
 12  11  13  1   
 13  13  14  1   
 14  13  15  1   
 15  13  16  1   
 16  16  17  1   
 17  16  18  1   
 18  16  19  1   
 19  19  20  1   
 20  19  21  1   
 21  19  22  1   
 22  22  23  1   
 23  22  24  1   
 24  22  25  1   
@<TRIPOS>SUBSTRUCTURE
  1 ****  11 GROUP 4 **** **** 0

# MOE 2022.02 (io_trps.svl 2020.11)

@<TRIPOS>MOLECULE
SEL111
14 14 1 0 0 
SMALL
USER_CHARGES


@<TRIPOS>ATOM
  1 H        2.6200    -3.8380     0.0010 H     1 <1>   0.1500 
  2 C        1.6770    -3.2940     0.0010 C.ar  1 <1>  -0.1500 
  3 C        1.6770    -1.9010    -0.0010 C.ar  1 <1>  -0.1500 
  4 H        2.6200    -1.3580    -0.0030 H     1 <1>   0.1500 
  5 C        0.4680    -1.2030    -0.0010 C.ar  1 <1>  -0.1500 
  6 H        0.4840    -0.1140    -0.0020 H     1 <1>   0.1500 
  7 C       -0.7520    -1.8970     0.0010 C.ar  1 <1>   0.0730 
  8 C       -1.9730    -1.1430     0.0010 C.1   1 <1>   0.4840 
  9 N       -2.9500    -0.5180     0.0010 N.1   1 <1>  -0.5570 
 10 C       -0.7520    -3.2990     0.0020 C.ar  1 <1>   0.0730 
 11 C       -1.9730    -4.0530     0.0040 C.1   1 <1>   0.4840 
 12 N       -2.9490    -4.6790     0.0060 N.1   1 <1>  -0.5570 
 13 C        0.4680    -3.9930     0.0030 C.ar  1 <1>  -0.1500 
 14 H        0.4850    -5.0820     0.0040 H     1 <1>   0.1500 
@<TRIPOS>BOND
  1   1   2  1   
  2   2   3  ar  
  3   2  13  ar  
  4   3   4  1   
  5   3   5  ar  
  6   5   6  1   
  7   5   7  ar  
  8   7   8  1   
  9   7  10  ar  
 10   8   9  3   
 11  10  11  1   
 12  10  13  ar  
 13  11  12  3   
 14  13  14  1   
@<TRIPOS>SUBSTRUCTURE
  1 ****  10 GROUP 4 **** **** 0

# MOE 2022.02 (io_trps.svl 2020.11)

@<TRIPOS>MOLECULE
SEL112
21 20 1 0 0 
SMALL
USER_CHARGES


@<TRIPOS>ATOM
  1 H        6.4650    -3.0250    -0.0880 H     1 <1>   0.3600 
  2 N        6.4790    -2.4150     0.7370 N.3   1 <1>  -0.7290 
  3 H        6.7420    -1.5020     0.3510 H     1 <1>   0.3600 
  4 N        5.1480    -2.3070     1.1940 N.am  1 <1>  -0.4210 
  5 H        4.9200    -2.4920     2.1660 H     1 <1>   0.3700 
  6 C        4.1240    -1.9500     0.3430 C.2   1 <1>   0.7800 
  7 O        4.2700    -1.7050    -0.8460 O.2   1 <1>  -0.5700 
  8 O        2.9600    -1.9200     1.0330 O.3   1 <1>  -0.4300 
  9 C        1.7150    -1.5760     0.3720 C.3   1 <1>   0.2800 
 10 C        1.3630    -2.5950    -0.7170 C.3   1 <1>   0.0000 
 11 H        1.4270    -3.6180    -0.3290 H     1 <1>   0.0000 
 12 H        0.3510    -2.4330    -1.1030 H     1 <1>   0.0000 
 13 H        2.0500    -2.5390    -1.5670 H     1 <1>   0.0000 
 14 C        0.6520    -1.6550     1.4790 C.3   1 <1>   0.0000 
 15 H        0.8890    -0.9640     2.2960 H     1 <1>   0.0000 
 16 H       -0.3480    -1.4150     1.1020 H     1 <1>   0.0000 
 17 H        0.6230    -2.6580     1.9210 H     1 <1>   0.0000 
 18 C        1.7490    -0.1440    -0.1720 C.3   1 <1>   0.0000 
 19 H        2.4420    -0.0410    -1.0120 H     1 <1>   0.0000 
 20 H        2.0850     0.5580     0.6000 H     1 <1>   0.0000 
 21 H        0.7600     0.1730    -0.5230 H     1 <1>   0.0000 
@<TRIPOS>BOND
  1   1   2  1   
  2   2   3  1   
  3   2   4  1   
  4   4   5  1   
  5   4   6  am  
  6   6   7  2   
  7   6   8  1   
  8   8   9  1   
  9   9  10  1   
 10   9  14  1   
 11   9  18  1   
 12  10  11  1   
 13  10  12  1   
 14  10  13  1   
 15  14  15  1   
 16  14  16  1   
 17  14  17  1   
 18  18  19  1   
 19  18  20  1   
 20  18  21  1   
@<TRIPOS>SUBSTRUCTURE
  1 ****   8 GROUP 4 **** **** 0

# MOE 2022.02 (io_trps.svl 2020.11)

@<TRIPOS>MOLECULE
SEL113
14 14 1 0 0 
SMALL
USER_CHARGES


@<TRIPOS>ATOM
  1 H        0.4360     3.4510     0.0050 H     1 <1>   0.1500 
  2 C       -0.1230     2.5190     0.0030 C.ar  1 <1>  -0.1500 
  3 C       -1.5200     2.5240     0.0020 C.ar  1 <1>  -0.1500 
  4 H       -2.0470     3.4760     0.0040 H     1 <1>   0.1500 
  5 C       -2.2130     1.3040     0.0000 C.ar  1 <1>   0.1330 
  6 N       -3.6820     1.3020    -0.0010 N.pl3 1 <1>   0.9070 
  7 O       -4.2590     2.3990     0.0000 O.2   1 <1>  -0.5200 
  8 O       -4.2560     0.2040    -0.0020 O.2   1 <1>  -0.5200 
  9 C       -1.5170     0.0850    -0.0020 C.ar  1 <1>  -0.1500 
 10 H       -2.0420    -0.8680    -0.0030 H     1 <1>   0.1500 
 11 C       -0.1200     0.0940    -0.0010 C.ar  1 <1>  -0.1500 
 12 H        0.4410    -0.8370    -0.0020 H     1 <1>   0.1500 
 13 C        0.5620     1.3070     0.0020 C.ar  1 <1>   0.1900 
 14 F        1.9010     1.3080     0.0030 F     1 <1>  -0.1900 
@<TRIPOS>BOND
  1   1   2  1   
  2   2   3  ar  
  3   2  13  ar  
  4   3   4  1   
  5   3   5  ar  
  6   5   6  1   
  7   5   9  ar  
  8   6   7  2   
  9   6   8  2   
 10   9  10  1   
 11   9  11  ar  
 12  11  12  1   
 13  11  13  ar  
 14  13  14  1   
@<TRIPOS>SUBSTRUCTURE
  1 ****   5 GROUP 4 **** **** 0

# MOE 2022.02 (io_trps.svl 2020.11)

@<TRIPOS>MOLECULE
SEL114
12 12 1 0 0 
SMALL
USER_CHARGES


@<TRIPOS>ATOM
  1 H       -3.7030     1.6710    -0.0060 H     1 <1>   0.1500 
  2 C       -2.6180     1.6710    -0.0030 C.ar  1 <1>   0.4700 
  3 N       -2.0100     0.4760    -0.0020 N.ar  1 <1>  -0.6200 
  4 C       -0.6590     0.5130     0.0010 C.ar  1 <1>   0.1600 
  5 H       -0.1840    -0.4640     0.0030 H     1 <1>   0.1500 
  6 C        0.0990     1.6700     0.0030 C.ar  1 <1>   0.1000 
  7 N        1.4790     1.6700     0.0060 N.pl3 1 <1>  -0.9000 
  8 H        1.9990     0.8030     0.0070 H     1 <1>   0.4000 
  9 H        1.9990     2.5380     0.0070 H     1 <1>   0.4000 
 10 C       -0.6590     2.8280     0.0010 C.ar  1 <1>   0.1600 
 11 H       -0.1830     3.8050     0.0020 H     1 <1>   0.1500 
 12 N       -2.0100     2.8660    -0.0020 N.ar  1 <1>  -0.6200 
@<TRIPOS>BOND
  1   1   2  1   
  2   2   3  ar  
  3   2  12  ar  
  4   3   4  ar  
  5   4   5  1   
  6   4   6  ar  
  7   6   7  1   
  8   6  10  ar  
  9   7   8  1   
 10   7   9  1   
 11  10  11  1   
 12  10  12  ar  
@<TRIPOS>SUBSTRUCTURE
  1 ****   6 GROUP 4 **** **** 0

# MOE 2022.02 (io_trps.svl 2020.11)

@<TRIPOS>MOLECULE
SEL115
22 22 1 0 0 
SMALL
USER_CHARGES


@<TRIPOS>ATOM
  1 H        3.6630     2.0530     1.3970 H     1 <1>   0.4000 
  2 O        3.1920     1.2050     1.4670 O.3   1 <1>  -0.6800 
  3 C        3.1370     0.6200     0.1610 C.3   1 <1>   0.2800 
  4 C        4.5790     0.3680    -0.2850 C.3   1 <1>   0.0000 
  5 H        4.6210    -0.0780    -1.2840 H     1 <1>   0.0000 
  6 H        5.0920    -0.3010     0.4160 H     1 <1>   0.0000 
  7 H        5.1530     1.3010    -0.3010 H     1 <1>   0.0000 
  8 C        2.4290     1.5970    -0.7850 C.3   1 <1>   0.0000 
  9 H        2.9890     2.5380    -0.8610 H     1 <1>   0.0000 
 10 H        2.3970     1.1680    -1.7950 H     1 <1>   0.0000 
 11 C        1.0020     1.9250    -0.3330 C.3   1 <1>   0.0000 
 12 H        0.4080     2.1860    -1.2180 H     1 <1>   0.0000 
 13 H        1.0080     2.8190     0.3020 H     1 <1>   0.0000 
 14 C        0.3190     0.7870     0.4270 C.3   1 <1>   0.0000 
 15 H        0.4690     0.9250     1.5050 H     1 <1>   0.0000 
 16 H       -0.7630     0.8320     0.2590 H     1 <1>   0.0000 
 17 C        0.8590    -0.5750     0.0170 C.3   1 <1>   0.0000 
 18 H        0.3270    -1.3700     0.5520 H     1 <1>   0.0000 
 19 H        0.6560    -0.7310    -1.0500 H     1 <1>   0.0000 
 20 C        2.3660    -0.7110     0.2670 C.3   1 <1>   0.0000 
 21 H        2.7530    -1.4440    -0.4520 H     1 <1>   0.0000 
 22 H        2.5180    -1.1420     1.2660 H     1 <1>   0.0000 
@<TRIPOS>BOND
  1   1   2  1   
  2   2   3  1   
  3   3   4  1   
  4   3   8  1   
  5   3  20  1   
  6   4   5  1   
  7   4   6  1   
  8   4   7  1   
  9   8   9  1   
 10   8  10  1   
 11   8  11  1   
 12  11  12  1   
 13  11  13  1   
 14  11  14  1   
 15  14  15  1   
 16  14  16  1   
 17  14  17  1   
 18  17  18  1   
 19  17  19  1   
 20  17  20  1   
 21  20  21  1   
 22  20  22  1   
@<TRIPOS>SUBSTRUCTURE
  1 ****   3 GROUP 4 **** **** 0

# MOE 2022.02 (io_trps.svl 2020.11)

@<TRIPOS>MOLECULE
SEL116
20 21 1 0 0 
SMALL
USER_CHARGES


@<TRIPOS>ATOM
  1 H       -2.2360     2.2560    -0.9380 H     1 <1>   0.1500 
  2 C       -1.2460     2.5550    -0.6010 C.ar  1 <1>  -0.1500 
  3 C       -1.1130     3.5780     0.3410 C.ar  1 <1>  -0.1500 
  4 H       -2.0050     4.0660     0.7290 H     1 <1>   0.1500 
  5 C        0.1450     3.9890     0.7970 C.ar  1 <1>  -0.1500 
  6 H        0.2490     4.7820     1.5290 H     1 <1>   0.1500 
  7 C        1.2520     3.3260     0.2620 C.ar  1 <1>  -0.1520 
  8 C        1.1510     2.3040    -0.6750 C.ar  1 <1>   0.2270 
  9 N        2.3940     1.8320    -1.0250 N.2   1 <1>  -0.5650 
 10 C        3.2520     2.5460    -0.3250 C.2   1 <1>   0.0070 
 11 C        4.7380     2.4440    -0.3390 C.3   1 <1>   0.4500 
 12 H        5.0420     1.5040    -0.8120 H     1 <1>   0.0000 
 13 H        5.1520     3.2650    -0.9330 H     1 <1>   0.0000 
 14 N        5.2840     2.5060     1.0190 N.3   1 <1>  -0.9900 
 15 H        4.9550     1.6790     1.5210 H     1 <1>   0.3600 
 16 H        6.2960     2.3960     0.9590 H     1 <1>   0.3600 
 17 N        2.5980     3.4550     0.4730 N.pl3 1 <1>   0.0330 
 18 H        3.0590     4.0940     1.1040 H     1 <1>   0.2700 
 19 C       -0.1180     1.9060    -1.1200 C.ar  1 <1>  -0.1500 
 20 H       -0.2130     1.1110    -1.8510 H     1 <1>   0.1500 
@<TRIPOS>BOND
  1   1   2  1   
  2   2   3  ar  
  3   2  19  ar  
  4   3   4  1   
  5   3   5  ar  
  6   5   6  1   
  7   5   7  ar  
  8   7   8  ar  
  9   7  17  1   
 10   8   9  1   
 11   8  19  ar  
 12   9  10  2   
 13  10  11  1   
 14  10  17  1   
 15  11  12  1   
 16  11  13  1   
 17  11  14  1   
 18  14  15  1   
 19  14  16  1   
 20  17  18  1   
 21  19  20  1   
@<TRIPOS>SUBSTRUCTURE
  1 ****   7 GROUP 4 **** **** 0

# MOE 2022.02 (io_trps.svl 2020.11)

@<TRIPOS>MOLECULE
SEL117
31 32 1 0 0 
SMALL
USER_CHARGES


@<TRIPOS>ATOM
  1 H       -8.9960    -1.9300    -0.9140 H     1 <1>   0.1500 
  2 C       -8.0560    -2.3390    -0.5530 C.ar  1 <1>  -0.1500 
  3 C       -7.6750    -2.1450     0.7740 C.ar  1 <1>  -0.1500 
  4 H       -8.3200    -1.5870     1.4470 H     1 <1>   0.1500 
  5 C       -6.4680    -2.6700     1.2390 C.ar  1 <1>  -0.1500 
  6 H       -6.1880    -2.5110     2.2780 H     1 <1>   0.1500 
  7 C       -5.6270    -3.3910     0.3790 C.ar  1 <1>  -0.1440 
  8 C       -4.3220    -3.9720     0.8840 C.3   1 <1>   0.4140 
  9 H       -4.1770    -3.7310     1.9450 H     1 <1>   0.0000 
 10 H       -4.4400    -5.0630     0.8290 H     1 <1>   0.0000 
 11 N       -3.1400    -3.5500     0.0970 N.3   1 <1>  -0.8100 
 12 C       -1.9830    -4.3880     0.4670 C.3   1 <1>   0.2700 
 13 H       -1.6710    -4.1910     1.5020 H     1 <1>   0.0000 
 14 H       -2.2940    -5.4400     0.4250 H     1 <1>   0.0000 
 15 C       -0.8070    -4.2620    -0.4960 C.3   1 <1>   0.0610 
 16 H       -0.2040    -5.1770    -0.4470 H     1 <1>   0.0000 
 17 H       -1.1320    -4.1570    -1.5370 H     1 <1>   0.0000 
 18 C        0.0910    -3.1160    -0.1150 C.2   1 <1>   0.5690 
 19 O        1.2540    -3.2820     0.2450 O.2   1 <1>  -0.5700 
 20 N       -0.4320    -1.8600    -0.1840 N.am  1 <1>  -0.7300 
 21 H        0.2070    -1.1200     0.0820 H     1 <1>   0.3700 
 22 C       -1.7760    -1.5300    -0.6110 C.3   1 <1>   0.3000 
 23 H       -1.9080    -1.8610    -1.6470 H     1 <1>   0.0000 
 24 H       -1.8400    -0.4360    -0.6040 H     1 <1>   0.0000 
 25 C       -2.8730    -2.1080     0.2990 C.3   1 <1>   0.2700 
 26 H       -3.7810    -1.5410     0.0620 H     1 <1>   0.0000 
 27 H       -2.6330    -1.9030     1.3500 H     1 <1>   0.0000 
 28 C       -6.0260    -3.5850    -0.9520 C.ar  1 <1>  -0.1500 
 29 H       -5.3870    -4.1440    -1.6330 H     1 <1>   0.1500 
 30 C       -7.2330    -3.0600    -1.4160 C.ar  1 <1>  -0.1500 
 31 H       -7.5290    -3.2130    -2.4500 H     1 <1>   0.1500 
@<TRIPOS>BOND
  1   1   2  1   
  2   2   3  ar  
  3   2  30  ar  
  4   3   4  1   
  5   3   5  ar  
  6   5   6  1   
  7   5   7  ar  
  8   7   8  1   
  9   7  28  ar  
 10   8   9  1   
 11   8  10  1   
 12   8  11  1   
 13  11  12  1   
 14  11  25  1   
 15  12  13  1   
 16  12  14  1   
 17  12  15  1   
 18  15  16  1   
 19  15  17  1   
 20  15  18  1   
 21  18  19  2   
 22  18  20  am  
 23  20  21  1   
 24  20  22  1   
 25  22  23  1   
 26  22  24  1   
 27  22  25  1   
 28  25  26  1   
 29  25  27  1   
 30  28  29  1   
 31  28  30  ar  
 32  30  31  1   
@<TRIPOS>SUBSTRUCTURE
  1 ****  11 GROUP 4 **** **** 0

# MOE 2022.02 (io_trps.svl 2020.11)

@<TRIPOS>MOLECULE
SEL118
14 14 1 0 0 
SMALL
USER_CHARGES


@<TRIPOS>ATOM
  1 H        6.4120    -2.2150    -0.0040 H     1 <1>   0.5000 
  2 O        5.8890    -1.3860     0.0750 O.3   1 <1>  -0.6500 
  3 C        4.6190    -1.8110    -0.0920 C.2   1 <1>   0.8050 
  4 O        4.3810    -2.9830    -0.3200 O.2   1 <1>  -0.5700 
  5 C        3.7090    -0.7180    -0.0040 C.2   1 <1>  -0.2370 
  6 C        2.3270    -0.6750     0.0300 C.2   1 <1>   0.0790 
  7 N        1.4110    -1.7660     0.0640 N.pl3 1 <1>   0.9610 
  8 O        0.3600    -1.6200    -0.5730 O.2   1 <1>  -0.5200 
  9 O        1.7120    -2.7370     0.7650 O.2   1 <1>  -0.5200 
 10 C        1.9920     0.6900     0.0300 C.2   1 <1>   0.1390 
 11 H        1.0090     1.1480     0.0370 H     1 <1>   0.1500 
 12 N        3.0750     1.4720     0.0420 N.2   1 <1>  -0.7070 
 13 N        4.0960     0.5970     0.0330 N.pl3 1 <1>   0.3000 
 14 H        5.0480     0.9520     0.0470 H     1 <1>   0.2700 
@<TRIPOS>BOND
  1   1   2  1   
  2   2   3  1   
  3   3   4  2   
  4   3   5  1   
  5   5   6  2   
  6   5  13  1   
  7   6   7  1   
  8   6  10  1   
  9   7   8  2   
 10   7   9  2   
 11  10  11  1   
 12  10  12  2   
 13  12  13  1   
 14  13  14  1   
@<TRIPOS>SUBSTRUCTURE
  1 ****   5 GROUP 4 **** **** 0

# MOE 2022.02 (io_trps.svl 2020.11)

@<TRIPOS>MOLECULE
SEL119
27 27 1 0 0 
SMALL
USER_CHARGES


@<TRIPOS>ATOM
  1 H       -6.6140     1.5530     0.6740 H     1 <1>   0.1500 
  2 C       -5.6310     1.9980     0.5420 C.ar  1 <1>   0.1600 
  3 N       -4.9420     2.2170     1.6850 N.ar  1 <1>  -0.6200 
  4 C       -3.7170     2.7830     1.5560 C.ar  1 <1>   0.1600 
  5 H       -3.1910     2.9720     2.4870 H     1 <1>   0.1500 
  6 C       -3.1530     3.1020     0.3310 C.ar  1 <1>   0.0860 
  7 C       -1.8210     3.7160     0.2930 C.2   1 <1>   0.5440 
  8 O       -1.7390     4.8890     0.6480 O.2   1 <1>  -0.5700 
  9 N       -0.7320     2.9460    -0.1180 N.am  1 <1>  -0.6600 
 10 C       -0.7870     1.5160    -0.4420 C.3   1 <1>   0.3000 
 11 H        0.0760     1.0280     0.0240 H     1 <1>   0.0000 
 12 H       -1.6780     1.0610    -0.0010 H     1 <1>   0.0000 
 13 C       -0.7820     1.2580    -1.9410 C.3   1 <1>   0.0000 
 14 H       -0.8600     0.1840    -2.1390 H     1 <1>   0.0000 
 15 H       -1.6170     1.7590    -2.4370 H     1 <1>   0.0000 
 16 H        0.1420     1.6180    -2.4050 H     1 <1>   0.0000 
 17 C        0.5720     3.6060    -0.1970 C.3   1 <1>   0.3000 
 18 H        0.4300     4.6600    -0.4600 H     1 <1>   0.0000 
 19 H        1.1590     3.1510    -1.0010 H     1 <1>   0.0000 
 20 C        1.3280     3.5210     1.1200 C.3   1 <1>   0.0000 
 21 H        0.7620     3.9920     1.9310 H     1 <1>   0.0000 
 22 H        1.5130     2.4800     1.4030 H     1 <1>   0.0000 
 23 H        2.2930     4.0300     1.0370 H     1 <1>   0.0000 
 24 C       -3.8890     2.8820    -0.8310 C.ar  1 <1>  -0.1500 
 25 H       -3.4910     3.1620    -1.8010 H     1 <1>   0.1500 
 26 C       -5.1550     2.3120    -0.7240 C.ar  1 <1>  -0.1500 
 27 H       -5.7610     2.1250    -1.6040 H     1 <1>   0.1500 
@<TRIPOS>BOND
  1   1   2  1   
  2   2   3  ar  
  3   2  26  ar  
  4   3   4  ar  
  5   4   5  1   
  6   4   6  ar  
  7   6   7  1   
  8   6  24  ar  
  9   7   8  2   
 10   7   9  am  
 11   9  10  1   
 12   9  17  1   
 13  10  11  1   
 14  10  12  1   
 15  10  13  1   
 16  13  14  1   
 17  13  15  1   
 18  13  16  1   
 19  17  18  1   
 20  17  19  1   
 21  17  20  1   
 22  20  21  1   
 23  20  22  1   
 24  20  23  1   
 25  24  25  1   
 26  24  26  ar  
 27  26  27  1   
@<TRIPOS>SUBSTRUCTURE
  1 ****   6 GROUP 4 **** **** 0

# MOE 2022.02 (io_trps.svl 2020.11)

@<TRIPOS>MOLECULE
SEL120
21 21 1 0 0 
SMALL
USER_CHARGES


@<TRIPOS>ATOM
  1 H       -2.0580    -2.6790    -0.0310 H     1 <1>   0.5000 
  2 O       -1.1150    -2.4120    -0.0340 O.3   1 <1>  -0.6500 
  3 C       -0.4480    -3.5790    -0.0010 C.2   1 <1>   0.6340 
  4 O       -1.0380    -4.6440     0.0230 O.2   1 <1>  -0.5700 
  5 C        1.0250    -3.4040     0.0010 C.ar  1 <1>   0.0860 
  6 C        1.8310    -4.5430     0.0290 C.ar  1 <1>  -0.1500 
  7 H        1.3810    -5.5340     0.0490 H     1 <1>   0.1500 
  8 C        3.2250    -4.4170     0.0320 C.ar  1 <1>  -0.1500 
  9 H        3.8200    -5.3270     0.0550 H     1 <1>   0.1500 
 10 C        3.8440    -3.1560     0.0110 C.ar  1 <1>   0.1170 
 11 N        5.2580    -3.1570     0.0150 N.am  1 <1>  -0.5470 
 12 H        5.6650    -4.0810    -0.0140 H     1 <1>   0.3700 
 13 C        6.2010    -2.1570     0.0580 C.2   1 <1>   0.5000 
 14 S        6.0540    -0.5090     0.2050 S.2   1 <1>  -0.3800 
 15 N        7.4730    -2.6570    -0.0280 N.am  1 <1>  -0.8000 
 16 H        7.6990    -3.6350    -0.1240 H     1 <1>   0.3700 
 17 H        8.2440    -1.9990     0.0050 H     1 <1>   0.3700 
 18 C        3.0280    -2.0250    -0.0230 C.ar  1 <1>  -0.1500 
 19 H        3.4280    -1.0210    -0.0570 H     1 <1>   0.1500 
 20 C        1.6290    -2.1450    -0.0260 C.ar  1 <1>  -0.1500 
 21 H        1.0250    -1.2400    -0.0530 H     1 <1>   0.1500 
@<TRIPOS>BOND
  1   1   2  1   
  2   2   3  1   
  3   3   4  2   
  4   3   5  1   
  5   5   6  ar  
  6   5  20  ar  
  7   6   7  1   
  8   6   8  ar  
  9   8   9  1   
 10   8  10  ar  
 11  10  11  1   
 12  10  18  ar  
 13  11  12  1   
 14  11  13  am  
 15  13  14  2   
 16  13  15  am  
 17  15  16  1   
 18  15  17  1   
 19  18  19  1   
 20  18  20  ar  
 21  20  21  1   
@<TRIPOS>SUBSTRUCTURE
  1 ****  18 GROUP 4 **** **** 0

# MOE 2022.02 (io_trps.svl 2020.11)

@<TRIPOS>MOLECULE
SEL121
18 18 1 0 0 
SMALL
USER_CHARGES


@<TRIPOS>ATOM
  1 H        9.5270     0.2590     0.1930 H     1 <1>   0.1770 
  2 C        8.4630     0.2110     0.1560 C.1   1 <1>  -0.1770 
  3 C        7.2640     0.1570     0.1140 C.1   1 <1>  -0.0730 
  4 C        5.8360     0.0920     0.0650 C.ar  1 <1>   0.0730 
  5 C        5.0940     1.2290    -0.2540 C.ar  1 <1>  -0.1500 
  6 H        5.5910     2.1720    -0.4680 H     1 <1>   0.1500 
  7 C        3.6990     1.1590    -0.3000 C.ar  1 <1>  -0.1500 
  8 H        3.1240     2.0480    -0.5490 H     1 <1>   0.1500 
  9 C        3.0350    -0.0400    -0.0290 C.ar  1 <1>   0.0820 
 10 O        1.6710     0.0320    -0.1070 O.3   1 <1>  -0.3630 
 11 C        0.9490    -1.1630     0.1590 C.3   1 <1>   0.2800 
 12 H        1.1210    -1.5090     1.1840 H     1 <1>   0.0000 
 13 H       -0.1180    -0.9390     0.0580 H     1 <1>   0.0000 
 14 H        1.1950    -1.9440    -0.5690 H     1 <1>   0.0000 
 15 C        3.7810    -1.1760     0.2890 C.ar  1 <1>  -0.1500 
 16 H        3.3100    -2.1290     0.5060 H     1 <1>   0.1500 
 17 C        5.1790    -1.1090     0.3360 C.ar  1 <1>  -0.1500 
 18 H        5.7490    -2.0010     0.5860 H     1 <1>   0.1500 
@<TRIPOS>BOND
  1   1   2  1   
  2   2   3  3   
  3   3   4  1   
  4   4   5  ar  
  5   4  17  ar  
  6   5   6  1   
  7   5   7  ar  
  8   7   8  1   
  9   7   9  ar  
 10   9  10  1   
 11   9  15  ar  
 12  10  11  1   
 13  11  12  1   
 14  11  13  1   
 15  11  14  1   
 16  15  16  1   
 17  15  17  ar  
 18  17  18  1   
@<TRIPOS>SUBSTRUCTURE
  1 ****  17 GROUP 4 **** **** 0

# MOE 2022.02 (io_trps.svl 2020.11)

@<TRIPOS>MOLECULE
SEL122
20 20 1 0 0 
SMALL
USER_CHARGES


@<TRIPOS>ATOM
  1 H       -5.0820    -3.6800    -1.0960 H     1 <1>   0.1500 
  2 C       -4.1370    -3.3580    -0.6650 C.ar  1 <1>  -0.1500 
  3 C       -3.3360    -4.2720     0.0210 C.ar  1 <1>  -0.1500 
  4 H       -3.6560    -5.3060     0.1220 H     1 <1>   0.1500 
  5 C       -2.1200    -3.8630     0.5770 C.ar  1 <1>  -0.1500 
  6 H       -1.5030    -4.5900     1.1020 H     1 <1>   0.1500 
  7 C       -1.6990    -2.5320     0.4560 C.ar  1 <1>  -0.1440 
  8 C       -0.3860    -2.0860     1.0340 C.3   1 <1>   0.2040 
  9 H       -0.2310    -2.5620     2.0100 H     1 <1>   0.0000 
 10 H       -0.3800    -1.0070     1.2290 H     1 <1>   0.0000 
 11 C        0.7880    -2.4240     0.1410 C.2   1 <1>   0.4480 
 12 O        1.5600    -3.3440     0.4160 O.2   1 <1>  -0.5700 
 13 C        0.9630    -1.6080    -1.1150 C.3   1 <1>   0.0610 
 14 H        0.9020    -0.5440    -0.8770 H     1 <1>   0.0000 
 15 H        1.9490    -1.8090    -1.5450 H     1 <1>   0.0000 
 16 H        0.1950    -1.8770    -1.8430 H     1 <1>   0.0000 
 17 C       -2.5110    -1.6350    -0.2430 C.ar  1 <1>   0.1900 
 18 F       -2.1170    -0.3620    -0.3950 F     1 <1>  -0.1900 
 19 C       -3.7230    -2.0350    -0.7990 C.ar  1 <1>  -0.1500 
 20 H       -4.3330    -1.3140    -1.3340 H     1 <1>   0.1500 
@<TRIPOS>BOND
  1   1   2  1   
  2   2   3  ar  
  3   2  19  ar  
  4   3   4  1   
  5   3   5  ar  
  6   5   6  1   
  7   5   7  ar  
  8   7   8  1   
  9   7  17  ar  
 10   8   9  1   
 11   8  10  1   
 12   8  11  1   
 13  11  12  2   
 14  11  13  1   
 15  13  14  1   
 16  13  15  1   
 17  13  16  1   
 18  17  18  1   
 19  17  19  ar  
 20  19  20  1   
@<TRIPOS>SUBSTRUCTURE
  1 ****   7 GROUP 4 **** **** 0

# MOE 2022.02 (io_trps.svl 2020.11)

@<TRIPOS>MOLECULE
SEL123
19 19 1 0 0 
SMALL
USER_CHARGES


@<TRIPOS>ATOM
  1 H        0.4400    -3.4240     0.8600 H     1 <1>   0.1500 
  2 C       -0.0660    -2.5120     0.5520 C.ar  1 <1>  -0.1500 
  3 C       -1.4630    -2.4720     0.5570 C.ar  1 <1>  -0.1500 
  4 H       -2.0210    -3.3620     0.8510 H     1 <1>   0.1500 
  5 C       -2.1460    -1.2990     0.2000 C.ar  1 <1>  -0.1440 
  6 C       -3.6550    -1.2580     0.1840 C.3   1 <1>   1.1640 
  7 F       -4.2250    -2.1600     1.0300 F     1 <1>  -0.3400 
  8 F       -4.1580    -0.0440     0.5410 F     1 <1>  -0.3400 
  9 F       -4.1640    -1.5270    -1.0500 F     1 <1>  -0.3400 
 10 C       -1.4010    -0.1690    -0.1760 C.ar  1 <1>  -0.1500 
 11 H       -1.9090     0.7500    -0.4660 H     1 <1>   0.1500 
 12 C       -0.0040    -0.2070    -0.1800 C.ar  1 <1>  -0.1500 
 13 H        0.5480     0.6820    -0.4790 H     1 <1>   0.1500 
 14 C        0.6700    -1.3790     0.1840 C.ar  1 <1>   0.0860 
 15 C        2.1530    -1.4350     0.1790 C.2   1 <1>   0.3540 
 16 S        3.1600    -0.2560     0.7990 S.2   1 <1>  -0.3800 
 17 N        2.7110    -2.5530    -0.3860 N.am  1 <1>  -0.8000 
 18 H        2.1700    -3.2970    -0.8090 H     1 <1>   0.3700 
 19 H        3.7210    -2.6440    -0.3950 H     1 <1>   0.3700 
@<TRIPOS>BOND
  1   1   2  1   
  2   2   3  ar  
  3   2  14  ar  
  4   3   4  1   
  5   3   5  ar  
  6   5   6  1   
  7   5  10  ar  
  8   6   7  1   
  9   6   8  1   
 10   6   9  1   
 11  10  11  1   
 12  10  12  ar  
 13  12  13  1   
 14  12  14  ar  
 15  14  15  1   
 16  15  16  2   
 17  15  17  am  
 18  17  18  1   
 19  17  19  1   
@<TRIPOS>SUBSTRUCTURE
  1 ****   5 GROUP 4 **** **** 0

# MOE 2022.02 (io_trps.svl 2020.11)

@<TRIPOS>MOLECULE
SEL124
23 23 1 0 0 
SMALL
USER_CHARGES


@<TRIPOS>ATOM
  1 H        0.3750     0.7310     0.5080 H     1 <1>   0.1500 
  2 C       -0.1440    -0.1600     0.1620 C.ar  1 <1>  -0.1500 
  3 C       -1.5090    -0.0840    -0.1210 C.ar  1 <1>  -0.1500 
  4 H       -2.0310     0.8630     0.0010 H     1 <1>   0.1500 
  5 C       -2.1830    -1.2240    -0.5640 C.ar  1 <1>  -0.0090 
  6 S       -3.9170    -1.1330    -0.9330 S.o2  1 <1>   1.2040 
  7 O       -4.2540     0.2640    -1.1300 O.2   1 <1>  -0.6500 
  8 O       -4.2000    -2.1170    -1.9610 O.2   1 <1>  -0.6500 
  9 C       -4.6820    -1.6730     0.5740 C.3   1 <1>   0.1050 
 10 H       -4.3900    -1.0010     1.3830 H     1 <1>   0.0000 
 11 H       -5.7650    -1.6390     0.4360 H     1 <1>   0.0000 
 12 H       -4.3680    -2.6960     0.7880 H     1 <1>   0.0000 
 13 C       -1.5060    -2.4300    -0.7490 C.ar  1 <1>  -0.1500 
 14 H       -2.0220    -3.3140    -1.1150 H     1 <1>   0.1500 
 15 C       -0.1420    -2.4980    -0.4640 C.ar  1 <1>  -0.1500 
 16 H        0.3890    -3.4400    -0.5950 H     1 <1>   0.1500 
 17 C        0.5520    -1.3660    -0.0080 C.ar  1 <1>  -0.1440 
 18 C        2.0270    -1.4530     0.2930 C.3   1 <1>   0.4140 
 19 H        2.5480    -1.8720    -0.5760 H     1 <1>   0.0000 
 20 H        2.4440    -0.4540     0.4610 H     1 <1>   0.0000 
 21 N        2.2770    -2.2830     1.4650 N.3   1 <1>  -0.9900 
 22 H        1.7990    -1.8750     2.2670 H     1 <1>   0.3600 
 23 H        3.2710    -2.2610     1.6830 H     1 <1>   0.3600 
@<TRIPOS>BOND
  1   1   2  1   
  2   2   3  ar  
  3   2  17  ar  
  4   3   4  1   
  5   3   5  ar  
  6   5   6  1   
  7   5  13  ar  
  8   6   7  2   
  9   6   8  2   
 10   6   9  1   
 11   9  10  1   
 12   9  11  1   
 13   9  12  1   
 14  13  14  1   
 15  13  15  ar  
 16  15  16  1   
 17  15  17  ar  
 18  17  18  1   
 19  18  19  1   
 20  18  20  1   
 21  18  21  1   
 22  21  22  1   
 23  21  23  1   
@<TRIPOS>SUBSTRUCTURE
  1 ****   5 GROUP 4 **** **** 0

# MOE 2022.02 (io_trps.svl 2020.11)

@<TRIPOS>MOLECULE
SEL125
23 24 1 0 0 
SMALL
USER_CHARGES


@<TRIPOS>ATOM
  1 H        7.7470    -0.0570    -0.2990 H     1 <1>   0.4500 
  2 O        7.0040    -0.6770    -0.2300 O.3   1 <1>  -0.5320 
  3 C        5.8450     0.0410    -0.2090 C.ar  1 <1>   0.0820 
  4 C        5.8520     1.4280    -0.2780 C.ar  1 <1>  -0.1500 
  5 H        6.7800     1.9850    -0.3460 H     1 <1>   0.1500 
  6 C        4.6400     2.1200    -0.2570 C.ar  1 <1>  -0.1500 
  7 H        4.6480     3.2070    -0.3070 H     1 <1>   0.1500 
  8 C        3.4200     1.4290    -0.1740 C.ar  1 <1>  -0.1440 
  9 C        3.4260     0.0250    -0.0830 C.ar  1 <1>  -0.1440 
 10 C        4.6490    -0.6620    -0.1150 C.ar  1 <1>  -0.1500 
 11 H        4.6730    -1.7480    -0.0670 H     1 <1>   0.1500 
 12 C        2.1430    -0.7670    -0.0150 C.3   1 <1>   0.1440 
 13 H        2.2520    -1.5940     0.6970 H     1 <1>   0.0000 
 14 H        1.9600    -1.2040    -1.0050 H     1 <1>   0.0000 
 15 C        0.9370     0.0760     0.3950 C.3   1 <1>   0.0000 
 16 H        0.9890     0.3080     1.4660 H     1 <1>   0.0000 
 17 H        0.0160    -0.4970     0.2350 H     1 <1>   0.0000 
 18 C        0.8950     1.3710    -0.4070 C.3   1 <1>   0.0000 
 19 H       -0.0060     1.9420    -0.1570 H     1 <1>   0.0000 
 20 H        0.8410     1.1380    -1.4780 H     1 <1>   0.0000 
 21 C        2.1340     2.2170    -0.1200 C.3   1 <1>   0.1440 
 22 H        2.0480     2.6570     0.8820 H     1 <1>   0.0000 
 23 H        2.1720     3.0420    -0.8420 H     1 <1>   0.0000 
@<TRIPOS>BOND
  1   1   2  1   
  2   2   3  1   
  3   3   4  ar  
  4   3  10  ar  
  5   4   5  1   
  6   4   6  ar  
  7   6   7  1   
  8   6   8  ar  
  9   8   9  ar  
 10   8  21  1   
 11   9  10  ar  
 12   9  12  1   
 13  10  11  1   
 14  12  13  1   
 15  12  14  1   
 16  12  15  1   
 17  15  16  1   
 18  15  17  1   
 19  15  18  1   
 20  18  19  1   
 21  18  20  1   
 22  18  21  1   
 23  21  22  1   
 24  21  23  1   
@<TRIPOS>SUBSTRUCTURE
  1 ****   9 GROUP 4 **** **** 0

# MOE 2022.02 (io_trps.svl 2020.11)

@<TRIPOS>MOLECULE
SEL126
15 15 1 0 0 
SMALL
USER_CHARGES


@<TRIPOS>ATOM
  1 H       -3.8710    -0.7240    -0.0650 H     1 <1>   0.1500 
  2 C       -3.3750     0.2360    -0.0110 C.2   1 <1>  -0.1100 
  3 S       -1.6740     0.3330    -0.1100 S.3   1 <1>  -0.0800 
  4 C       -1.6770     2.0520     0.0410 C.2   1 <1>  -0.0450 
  5 C       -0.4390     2.8170     0.0300 C.2   1 <1>   0.8050 
  6 O       -0.3520     4.0350     0.1410 O.2   1 <1>  -0.5700 
  7 O        0.6510     2.0040    -0.1240 O.3   1 <1>  -0.4300 
  8 C        1.9010     2.6930    -0.1460 C.3   1 <1>   0.2800 
  9 H        2.6940     1.9500    -0.2690 H     1 <1>   0.0000 
 10 H        2.0650     3.2210     0.7980 H     1 <1>   0.0000 
 11 H        1.9420     3.3860    -0.9920 H     1 <1>   0.0000 
 12 C       -2.9750     2.5070     0.1650 C.2   1 <1>   0.0570 
 13 BR      -3.5360     4.3060     0.3590 Br    1 <1>  -0.0570 
 14 C       -3.9530     1.4760     0.1360 C.2   1 <1>  -0.1500 
 15 H       -5.0230     1.6250     0.2170 H     1 <1>   0.1500 
@<TRIPOS>BOND
  1   1   2  1   
  2   2   3  1   
  3   2  14  2   
  4   3   4  1   
  5   4   5  1   
  6   4  12  2   
  7   5   6  2   
  8   5   7  1   
  9   7   8  1   
 10   8   9  1   
 11   8  10  1   
 12   8  11  1   
 13  12  13  1   
 14  12  14  1   
 15  14  15  1   
@<TRIPOS>SUBSTRUCTURE
  1 ****   4 GROUP 4 **** **** 0

# MOE 2022.02 (io_trps.svl 2020.11)

@<TRIPOS>MOLECULE
SEL127
20 20 1 0 0 
SMALL
USER_CHARGES


@<TRIPOS>ATOM
  1 H       -3.7590     0.8600     0.1250 H     1 <1>   0.1500 
  2 C       -3.2210    -0.0830     0.1100 C.ar  1 <1>  -0.1500 
  3 C       -1.8240    -0.0860     0.1490 C.ar  1 <1>  -0.1500 
  4 H       -1.2960     0.8650     0.1940 H     1 <1>   0.1500 
  5 C       -1.1010    -1.2920     0.1280 C.ar  1 <1>  -0.1440 
  6 C        0.4120    -1.2120     0.1810 C.3   1 <1>   0.1440 
  7 H        0.6850    -0.7360     1.1320 H     1 <1>   0.0000 
  8 H        0.7380    -0.5400    -0.6250 H     1 <1>   0.0000 
  9 C        1.1810    -2.5340     0.0520 C.3   1 <1>   0.2700 
 10 H        0.9290    -3.0250    -0.8950 H     1 <1>   0.0000 
 11 H        0.9090    -3.2160     0.8650 H     1 <1>   0.0000 
 12 N        2.6250    -2.3110     0.0900 N.3   1 <1>  -0.9900 
 13 H        3.1070    -3.2070     0.0230 H     1 <1>   0.3600 
 14 H        2.8880    -1.9130     0.9910 H     1 <1>   0.3600 
 15 C       -1.8160    -2.4960     0.0730 C.ar  1 <1>  -0.1500 
 16 H       -1.3080    -3.4570     0.0580 H     1 <1>   0.1500 
 17 C       -3.2140    -2.4950     0.0340 C.ar  1 <1>  -0.1500 
 18 H       -3.7510    -3.4380    -0.0100 H     1 <1>   0.1500 
 19 C       -3.9100    -1.2900     0.0520 C.ar  1 <1>   0.1770 
 20 CL      -5.6300    -1.2930     0.0050 Cl    1 <1>  -0.1770 
@<TRIPOS>BOND
  1   1   2  1   
  2   2   3  ar  
  3   2  19  ar  
  4   3   4  1   
  5   3   5  ar  
  6   5   6  1   
  7   5  15  ar  
  8   6   7  1   
  9   6   8  1   
 10   6   9  1   
 11   9  10  1   
 12   9  11  1   
 13   9  12  1   
 14  12  13  1   
 15  12  14  1   
 16  15  16  1   
 17  15  17  ar  
 18  17  18  1   
 19  17  19  ar  
 20  19  20  1   
@<TRIPOS>SUBSTRUCTURE
  1 ****   5 GROUP 4 **** **** 0

# MOE 2022.02 (io_trps.svl 2020.11)

@<TRIPOS>MOLECULE
SEL128
22 21 1 0 0 
SMALL
USER_CHARGES


@<TRIPOS>ATOM
  1 H        0.8960     2.0360    -1.5580 H     1 <1>   0.0000 
  2 C        0.6270     2.3450    -0.5450 C.3   1 <1>   0.0610 
  3 H        1.0730     3.3140    -0.3150 H     1 <1>   0.0000 
  4 H       -0.4620     2.4330    -0.4960 H     1 <1>   0.0000 
  5 C        1.0900     1.3080     0.4500 C.2   1 <1>   0.4480 
  6 O        0.3630     0.9830     1.3910 O.2   1 <1>  -0.5700 
  7 C        2.4500     0.6690     0.2130 C.3   1 <1>   0.1220 
  8 H        2.4000     0.2060    -0.7800 H     1 <1>   0.0000 
  9 C        3.5700     1.6800     0.2060 C.2   1 <1>   0.6590 
 10 O        3.4730     2.8430     0.5680 O.2   1 <1>  -0.5700 
 11 O        4.7090     1.1140    -0.2870 O.3   1 <1>  -0.4300 
 12 C        5.8400     1.9940    -0.3280 C.3   1 <1>   0.2800 
 13 H        5.6230     2.8420    -0.9880 H     1 <1>   0.0000 
 14 H        6.0620     2.3580     0.6810 H     1 <1>   0.0000 
 15 C        7.0260     1.2160    -0.8650 C.3   1 <1>   0.0000 
 16 H        6.8110     0.8280    -1.8660 H     1 <1>   0.0000 
 17 H        7.2400     0.3520    -0.2270 H     1 <1>   0.0000 
 18 H        7.9170     1.8480    -0.9140 H     1 <1>   0.0000 
 19 C        2.7420    -0.4120     1.2530 C.3   1 <1>   0.0000 
 20 H        1.9460    -1.1650     1.2720 H     1 <1>   0.0000 
 21 H        2.8230     0.0170     2.2580 H     1 <1>   0.0000 
 22 H        3.6840    -0.9270     1.0370 H     1 <1>   0.0000 
@<TRIPOS>BOND
  1   1   2  1   
  2   2   3  1   
  3   2   4  1   
  4   2   5  1   
  5   5   6  2   
  6   5   7  1   
  7   7   8  1   
  8   7   9  1   
  9   7  19  1   
 10   9  10  2   
 11   9  11  1   
 12  11  12  1   
 13  12  13  1   
 14  12  14  1   
 15  12  15  1   
 16  15  16  1   
 17  15  17  1   
 18  15  18  1   
 19  19  20  1   
 20  19  21  1   
 21  19  22  1   
@<TRIPOS>SUBSTRUCTURE
  1 ****   9 GROUP 4 **** **** 0

# MOE 2022.02 (io_trps.svl 2020.11)

@<TRIPOS>MOLECULE
SEL129
17 18 1 0 0 
SMALL
USER_CHARGES


@<TRIPOS>ATOM
  1 H        7.2130    -0.1900    -0.0150 H     1 <1>   0.4500 
  2 O        6.4660    -0.8100    -0.0130 O.3   1 <1>  -0.5320 
  3 C        5.3060    -0.0870    -0.0080 C.ar  1 <1>   0.0820 
  4 C        5.3300     1.3040    -0.0060 C.ar  1 <1>  -0.1500 
  5 H        6.2680     1.8490    -0.0080 H     1 <1>   0.1500 
  6 C        4.1300     2.0260    -0.0010 C.ar  1 <1>  -0.1500 
  7 H        4.1440     3.1110     0.0010 H     1 <1>   0.1500 
  8 C        2.9040     1.3310     0.0020 C.ar  1 <1>   0.0000 
  9 C        1.5390     1.7320     0.0080 C.2   1 <1>  -0.1500 
 10 H        1.1650     2.7480     0.0110 H     1 <1>   0.1500 
 11 C        0.7670     0.5930     0.0090 C.2   1 <1>  -0.3020 
 12 H       -0.3070     0.4570     0.0120 H     1 <1>   0.1500 
 13 N        1.6110    -0.4860     0.0030 N.pl3 1 <1>   0.0330 
 14 H        1.3220    -1.4540     0.0030 H     1 <1>   0.2700 
 15 C        2.9210    -0.0640     0.0000 C.ar  1 <1>  -0.1520 
 16 C        4.1100    -0.8040    -0.0060 C.ar  1 <1>  -0.1500 
 17 H        4.1100    -1.8880    -0.0070 H     1 <1>   0.1500 
@<TRIPOS>BOND
  1   1   2  1   
  2   2   3  1   
  3   3   4  ar  
  4   3  16  ar  
  5   4   5  1   
  6   4   6  ar  
  7   6   7  1   
  8   6   8  ar  
  9   8   9  1   
 10   8  15  ar  
 11   9  10  1   
 12   9  11  2   
 13  11  12  1   
 14  11  13  1   
 15  13  14  1   
 16  13  15  1   
 17  15  16  ar  
 18  16  17  1   
@<TRIPOS>SUBSTRUCTURE
  1 ****  15 GROUP 4 **** **** 0

# MOE 2022.02 (io_trps.svl 2020.11)

@<TRIPOS>MOLECULE
SEL130
25 25 1 0 0 
SMALL
USER_CHARGES


@<TRIPOS>ATOM
  1 H       -0.5520     1.9230     1.3960 H     1 <1>   0.5000 
  2 O        0.0920     1.6280     0.7180 O.3   1 <1>  -0.6500 
  3 C        1.2690     1.6140     1.3850 C.2   1 <1>   0.6590 
  4 O        1.2830     1.9520     2.5590 O.2   1 <1>  -0.5700 
  5 C        2.4660     1.1830     0.5190 C.3   1 <1>   0.3410 
  6 O        3.5570     1.0300     1.4570 O.3   1 <1>  -0.3630 
  7 C        4.8120     1.3140     1.0100 C.ar  1 <1>   0.0820 
  8 C        5.5490     0.3790     0.2860 C.ar  1 <1>  -0.1500 
  9 H        5.1280    -0.5910     0.0430 H     1 <1>   0.1500 
 10 C        6.8530     0.6840    -0.1120 C.ar  1 <1>  -0.1500 
 11 H        7.4270    -0.0420    -0.6810 H     1 <1>   0.1500 
 12 C        7.4160     1.9110     0.2400 C.ar  1 <1>   0.1770 
 13 CL       9.0240     2.2840    -0.2470 Cl    1 <1>  -0.1770 
 14 C        6.6900     2.8320     0.9950 C.ar  1 <1>  -0.1500 
 15 H        7.1340     3.7800     1.2850 H     1 <1>   0.1500 
 16 C        5.3870     2.5260     1.3910 C.ar  1 <1>  -0.1500 
 17 H        4.8210     3.2290     1.9970 H     1 <1>   0.1500 
 18 C        2.6650     2.2630    -0.5560 C.3   1 <1>   0.0000 
 19 H        3.4960     2.0220    -1.2280 H     1 <1>   0.0000 
 20 H        2.8800     3.2360    -0.1020 H     1 <1>   0.0000 
 21 H        1.7690     2.3810    -1.1780 H     1 <1>   0.0000 
 22 C        2.1580    -0.1810    -0.1080 C.3   1 <1>   0.0000 
 23 H        1.2490    -0.1580    -0.7200 H     1 <1>   0.0000 
 24 H        2.0240    -0.9440     0.6680 H     1 <1>   0.0000 
 25 H        2.9750    -0.5190    -0.7510 H     1 <1>   0.0000 
@<TRIPOS>BOND
  1   1   2  1   
  2   2   3  1   
  3   3   4  2   
  4   3   5  1   
  5   5   6  1   
  6   5  18  1   
  7   5  22  1   
  8   6   7  1   
  9   7   8  ar  
 10   7  16  ar  
 11   8   9  1   
 12   8  10  ar  
 13  10  11  1   
 14  10  12  ar  
 15  12  13  1   
 16  12  14  ar  
 17  14  15  1   
 18  14  16  ar  
 19  16  17  1   
 20  18  19  1   
 21  18  20  1   
 22  18  21  1   
 23  22  23  1   
 24  22  24  1   
 25  22  25  1   
@<TRIPOS>SUBSTRUCTURE
  1 ****   7 GROUP 4 **** **** 0

# MOE 2022.02 (io_trps.svl 2020.11)

@<TRIPOS>MOLECULE
SEL131
16 15 1 0 0 
SMALL
USER_CHARGES


@<TRIPOS>ATOM
  1 H        0.2840    -1.7220    -0.6520 H     1 <1>   0.0000 
  2 C        0.3900    -0.9550     0.1180 C.3   1 <1>   0.3010 
  3 H        0.4670    -1.4010     1.1140 H     1 <1>   0.0000 
  4 C        1.5570    -0.0670    -0.1700 C.2   1 <1>   0.6590 
  5 O        1.5280     1.0890    -0.5640 O.2   1 <1>  -0.5700 
  6 O        2.7080    -0.7750     0.0490 O.3   1 <1>  -0.4300 
  7 C        3.9140    -0.0390    -0.2000 C.3   1 <1>   0.2800 
  8 H        3.9500     0.2610    -1.2530 H     1 <1>   0.0000 
  9 H        3.9440     0.8490     0.4410 H     1 <1>   0.0000 
 10 C        5.0920    -0.9400     0.1180 C.3   1 <1>   0.0000 
 11 H        5.0630    -1.8450    -0.4980 H     1 <1>   0.0000 
 12 H        6.0380    -0.4220    -0.0590 H     1 <1>   0.0000 
 13 H        5.0570    -1.2650     1.1630 H     1 <1>   0.0000 
 14 N       -0.8260    -0.1080     0.1060 N.pl3 1 <1>   0.8000 
 15 O       -1.4810    -0.0750    -0.9450 O.2   1 <1>  -0.5200 
 16 O       -1.1310     0.4580     1.1640 O.2   1 <1>  -0.5200 
@<TRIPOS>BOND
  1   1   2  1   
  2   2   3  1   
  3   2   4  1   
  4   2  14  1   
  5   4   5  2   
  6   4   6  1   
  7   6   7  1   
  8   7   8  1   
  9   7   9  1   
 10   7  10  1   
 11  10  11  1   
 12  10  12  1   
 13  10  13  1   
 14  14  15  2   
 15  14  16  2   
@<TRIPOS>SUBSTRUCTURE
  1 ****   4 GROUP 4 **** **** 0

# MOE 2022.02 (io_trps.svl 2020.11)

@<TRIPOS>MOLECULE
SEL132
27 28 1 0 0 
SMALL
USER_CHARGES


@<TRIPOS>ATOM
  1 H        7.6970     1.6260    -0.6840 H     1 <1>   0.4000 
  2 O        7.0930     2.0140    -0.0270 O.3   1 <1>  -0.6800 
  3 C        6.1740     2.8490    -0.7260 C.3   1 <1>   0.2800 
  4 H        5.8100     2.2970    -1.5980 H     1 <1>   0.0000 
  5 H        6.7220     3.7360    -1.0580 H     1 <1>   0.0000 
  6 C        5.0140     3.2370     0.1950 C.3   1 <1>   0.2800 
  7 H        5.3930     3.4850     1.1940 H     1 <1>   0.0000 
  8 O        4.1060     2.0920     0.3610 O.3   1 <1>  -0.5600 
  9 C        2.9060     2.5080    -0.2660 C.3   1 <1>   0.5600 
 10 H        2.9910     2.3050    -1.3440 H     1 <1>   0.0000 
 11 O        1.6350     2.0500     0.1580 O.3   1 <1>  -0.5600 
 12 C        0.7760     3.1470    -0.2710 C.3   1 <1>   0.5600 
 13 C        0.0170     2.7380    -1.5280 C.3   1 <1>   0.0000 
 14 H       -0.6310     3.5460    -1.8810 H     1 <1>   0.0000 
 15 H        0.7130     2.5050    -2.3420 H     1 <1>   0.0000 
 16 H       -0.5870     1.8410    -1.3520 H     1 <1>   0.0000 
 17 C       -0.1830     3.4900     0.8650 C.3   1 <1>   0.0000 
 18 H       -0.8210     4.3400     0.6010 H     1 <1>   0.0000 
 19 H        0.3690     3.7680     1.7700 H     1 <1>   0.0000 
 20 H       -0.8120     2.6320     1.1240 H     1 <1>   0.0000 
 21 O        1.6010     4.3100    -0.5870 O.3   1 <1>  -0.5600 
 22 C        2.8100     3.9650     0.0620 C.3   1 <1>   0.2800 
 23 H        2.6940     4.1650     1.1370 H     1 <1>   0.0000 
 24 C        4.1730     4.4020    -0.4010 C.3   1 <1>   0.2800 
 25 H        4.2260     4.4620    -1.4940 H     1 <1>   0.0000 
 26 O        4.5350     5.6650     0.1400 O.3   1 <1>  -0.6800 
 27 H        5.4330     5.8860    -0.1620 H     1 <1>   0.4000 
@<TRIPOS>BOND
  1   1   2  1   
  2   2   3  1   
  3   3   4  1   
  4   3   5  1   
  5   3   6  1   
  6   6   7  1   
  7   6   8  1   
  8   6  24  1   
  9   8   9  1   
 10   9  10  1   
 11   9  11  1   
 12   9  22  1   
 13  11  12  1   
 14  12  13  1   
 15  12  17  1   
 16  12  21  1   
 17  13  14  1   
 18  13  15  1   
 19  13  16  1   
 20  17  18  1   
 21  17  19  1   
 22  17  20  1   
 23  21  22  1   
 24  22  23  1   
 25  22  24  1   
 26  24  25  1   
 27  24  26  1   
 28  26  27  1   
@<TRIPOS>SUBSTRUCTURE
  1 ****  22 GROUP 4 **** **** 0

# MOE 2022.02 (io_trps.svl 2020.11)

@<TRIPOS>MOLECULE
SEL133
37 38 1 0 0 
SMALL
USER_CHARGES


@<TRIPOS>ATOM
  1 H       -6.2960     3.3810    -1.6620 H     1 <1>   0.1500 
  2 C       -5.7670     2.5880    -1.1410 C.ar  1 <1>  -0.1500 
  3 C       -4.5290     2.1640    -1.6290 C.ar  1 <1>  -0.1500 
  4 H       -4.1270     2.6450    -2.5190 H     1 <1>   0.1500 
  5 C       -3.8080     1.1420    -0.9870 C.ar  1 <1>  -0.1440 
  6 C       -2.4660     0.7270    -1.5620 C.3   1 <1>   0.4140 
  7 H       -2.5640    -0.3230    -1.8670 H     1 <1>   0.0000 
  8 H       -2.2540     1.2810    -2.4870 H     1 <1>   0.0000 
  9 N       -1.3670     0.8870    -0.6060 N.3   1 <1>  -0.8100 
 10 C       -1.0440     2.3080    -0.3590 C.3   1 <1>   0.2700 
 11 H       -0.8210     2.8220    -1.3040 H     1 <1>   0.0000 
 12 H       -1.9030     2.8160     0.0940 H     1 <1>   0.0000 
 13 C        0.1570     2.4760     0.6010 C.3   1 <1>   0.2700 
 14 H       -0.1260     2.1030     1.5950 H     1 <1>   0.0000 
 15 H        0.3670     3.5480     0.7020 H     1 <1>   0.0000 
 16 N        1.3640     1.7840     0.1100 N.3   1 <1>  -0.8100 
 17 C        2.4580     1.9090     1.0710 C.3   1 <1>   0.2700 
 18 H        3.3590     1.4160     0.6910 H     1 <1>   0.0000 
 19 H        2.2100     1.4710     2.0450 H     1 <1>   0.0000 
 20 H        2.7150     2.9630     1.2230 H     1 <1>   0.0000 
 21 C        1.0410     0.3640    -0.1280 C.3   1 <1>   0.2700 
 22 H        1.9110    -0.1380    -0.5710 H     1 <1>   0.0000 
 23 H        0.8150    -0.1460     0.8180 H     1 <1>   0.0000 
 24 C       -0.1550     0.1950    -1.0910 C.3   1 <1>   0.2700 
 25 H       -0.3620    -0.8780    -1.1880 H     1 <1>   0.0000 
 26 H        0.1270     0.5660    -2.0850 H     1 <1>   0.0000 
 27 C       -4.3620     0.5370     0.1630 C.ar  1 <1>  -0.1440 
 28 C       -3.6590    -0.5670     0.9270 C.3   1 <1>   1.1640 
 29 F       -4.5270    -1.2980     1.6950 F     1 <1>  -0.3400 
 30 F       -2.7210    -0.1090     1.8020 F     1 <1>  -0.3400 
 31 F       -3.0440    -1.4910     0.1360 F     1 <1>  -0.3400 
 32 C       -5.6100     0.9940     0.6410 C.ar  1 <1>  -0.1500 
 33 H       -6.0350     0.5390     1.5350 H     1 <1>   0.1500 
 34 C       -6.3190     2.0090    -0.0020 C.ar  1 <1>   0.1000 
 35 N       -7.5430     2.4290     0.4820 N.pl3 1 <1>  -0.9000 
 36 H       -8.0560     3.1650     0.0160 H     1 <1>   0.4000 
 37 H       -7.9480     2.0100     1.3070 H     1 <1>   0.4000 
@<TRIPOS>BOND
  1   1   2  1   
  2   2   3  ar  
  3   2  34  ar  
  4   3   4  1   
  5   3   5  ar  
  6   5   6  1   
  7   5  27  ar  
  8   6   7  1   
  9   6   8  1   
 10   6   9  1   
 11   9  10  1   
 12   9  24  1   
 13  10  11  1   
 14  10  12  1   
 15  10  13  1   
 16  13  14  1   
 17  13  15  1   
 18  13  16  1   
 19  16  17  1   
 20  16  21  1   
 21  17  18  1   
 22  17  19  1   
 23  17  20  1   
 24  21  22  1   
 25  21  23  1   
 26  21  24  1   
 27  24  25  1   
 28  24  26  1   
 29  27  28  1   
 30  27  32  ar  
 31  28  29  1   
 32  28  30  1   
 33  28  31  1   
 34  32  33  1   
 35  32  34  ar  
 36  34  35  1   
 37  35  36  1   
 38  35  37  1   
@<TRIPOS>SUBSTRUCTURE
  1 ****   5 GROUP 4 **** **** 0

# MOE 2022.02 (io_trps.svl 2020.11)

@<TRIPOS>MOLECULE
SEL134
37 39 1 0 0 
SMALL
USER_CHARGES


@<TRIPOS>ATOM
  1 H        9.3720    -4.4110    -1.6010 H     1 <1>   0.5000 
  2 O        8.4120    -4.2110    -1.5910 O.3   1 <1>  -0.6500 
  3 C        7.9580    -4.8720    -0.4980 C.2   1 <1>   0.6670 
  4 O        8.7640    -5.5090     0.1700 O.2   1 <1>  -0.5700 
  5 C        6.4470    -4.7240    -0.2650 C.3   1 <1>   0.0530 
  6 H        5.9140    -5.5150    -0.8100 H     1 <1>   0.0000 
  7 C        5.8030    -3.3390    -0.4660 C.3   1 <1>   0.2100 
  8 H        5.2050    -3.2120    -1.3710 H     1 <1>   0.0000 
  9 H        6.5250    -2.5110    -0.4540 H     1 <1>   0.0000 
 10 N        5.0970    -3.4720     0.8180 N.3   1 <1>  -0.6890 
 11 C        3.6530    -3.8280     0.7400 C.3   1 <1>   0.5570 
 12 H        3.4260    -4.2260     1.7420 H     1 <1>   0.0000 
 13 C        3.2390    -4.9250    -0.2530 C.ar  1 <1>  -0.1440 
 14 C        2.9230    -4.6350    -1.5930 C.ar  1 <1>  -0.1500 
 15 H        2.9590    -3.6100    -1.9570 H     1 <1>   0.1500 
 16 C        2.5470    -5.6480    -2.4770 C.ar  1 <1>  -0.1500 
 17 H        2.3070    -5.4050    -3.5090 H     1 <1>   0.1500 
 18 C        2.4730    -6.9670    -2.0370 C.ar  1 <1>  -0.1500 
 19 H        2.1780    -7.7550    -2.7260 H     1 <1>   0.1500 
 20 C        2.7680    -7.2740    -0.7120 C.ar  1 <1>  -0.1500 
 21 H        2.7030    -8.3020    -0.3650 H     1 <1>   0.1500 
 22 C        3.1440    -6.2620     0.1740 C.ar  1 <1>  -0.1500 
 23 H        3.3600    -6.5260     1.2070 H     1 <1>   0.1500 
 24 C        2.7310    -2.5940     0.6740 C.ar  1 <1>  -0.1440 
 25 C        1.3570    -2.7540     0.9480 C.ar  1 <1>  -0.1500 
 26 H        0.9610    -3.7360     1.2000 H     1 <1>   0.1500 
 27 C        0.4790    -1.6690     0.8960 C.ar  1 <1>  -0.1500 
 28 H       -0.5770    -1.8150     1.1080 H     1 <1>   0.1500 
 29 C        0.9570    -0.4020     0.5740 C.ar  1 <1>  -0.1500 
 30 H        0.2760     0.4430     0.5350 H     1 <1>   0.1500 
 31 C        2.3110    -0.2200     0.3060 C.ar  1 <1>  -0.1500 
 32 H        2.6870     0.7700     0.0600 H     1 <1>   0.1500 
 33 C        3.1910    -1.3050     0.3560 C.ar  1 <1>  -0.1500 
 34 H        4.2420    -1.1240     0.1520 H     1 <1>   0.1500 
 35 C        5.9670    -4.5990     1.1950 C.3   1 <1>   0.2100 
 36 H        6.7560    -4.2990     1.8970 H     1 <1>   0.0000 
 37 H        5.4890    -5.4880     1.6160 H     1 <1>   0.0000 
@<TRIPOS>BOND
  1   1   2  1   
  2   2   3  1   
  3   3   4  2   
  4   3   5  1   
  5   5   6  1   
  6   5   7  1   
  7   5  35  1   
  8   7   8  1   
  9   7   9  1   
 10   7  10  1   
 11  10  11  1   
 12  10  35  1   
 13  11  12  1   
 14  11  13  1   
 15  11  24  1   
 16  13  14  ar  
 17  13  22  ar  
 18  14  15  1   
 19  14  16  ar  
 20  16  17  1   
 21  16  18  ar  
 22  18  19  1   
 23  18  20  ar  
 24  20  21  1   
 25  20  22  ar  
 26  22  23  1   
 27  24  25  ar  
 28  24  33  ar  
 29  25  26  1   
 30  25  27  ar  
 31  27  28  1   
 32  27  29  ar  
 33  29  30  1   
 34  29  31  ar  
 35  31  32  1   
 36  31  33  ar  
 37  33  34  1   
 38  35  36  1   
 39  35  37  1   
@<TRIPOS>SUBSTRUCTURE
  1 ****  11 GROUP 4 **** **** 0

# MOE 2022.02 (io_trps.svl 2020.11)

@<TRIPOS>MOLECULE
SEL135
42 43 1 0 0 
SMALL
USER_CHARGES


@<TRIPOS>ATOM
  1 H        1.6490    -6.7470     0.9290 H     1 <1>   0.1500 
  2 C        0.7390    -6.3600     0.4790 C.ar  1 <1>  -0.1500 
  3 C        0.0650    -7.1050    -0.4840 C.ar  1 <1>  -0.1500 
  4 H        0.4490    -8.0740    -0.7900 H     1 <1>   0.1500 
  5 C       -1.1050    -6.6040    -1.0580 C.ar  1 <1>  -0.1500 
  6 H       -1.6160    -7.2000    -1.8130 H     1 <1>   0.1500 
  7 C       -1.6290    -5.3570    -0.6700 C.ar  1 <1>  -0.1440 
  8 C       -2.8970    -4.8350    -1.3190 C.3   1 <1>   0.4140 
  9 H       -2.9090    -5.2450    -2.3390 H     1 <1>   0.0000 
 10 H       -2.7930    -3.7600    -1.5000 H     1 <1>   0.0000 
 11 N       -4.2260    -5.1500    -0.7620 N.3   1 <1>  -0.6890 
 12 C       -4.2940    -6.4320    -0.0370 C.3   1 <1>   0.2100 
 13 H       -5.1960    -7.0090    -0.2730 H     1 <1>   0.0000 
 14 H       -3.4680    -7.1400    -0.1210 H     1 <1>   0.0000 
 15 C       -4.3770    -5.6780     1.2940 C.3   1 <1>   0.0000 
 16 H       -3.4290    -5.6550     1.8430 H     1 <1>   0.0000 
 17 H       -5.1590    -6.0120     1.9820 H     1 <1>   0.0000 
 18 C       -4.6780    -4.3990     0.4570 C.3   1 <1>   0.2630 
 19 C       -3.8510    -3.0990     0.8980 C.2   1 <1>   0.6670 
 20 O       -3.2840    -2.9360     1.9790 O.2   1 <1>  -0.5700 
 21 O       -3.8760    -2.1240    -0.0680 O.3   1 <1>  -0.4300 
 22 C       -3.2040    -0.9150     0.2880 C.3   1 <1>   0.2800 
 23 H       -2.1410    -1.1040     0.4640 H     1 <1>   0.0000 
 24 H       -3.2980    -0.2170    -0.5490 H     1 <1>   0.0000 
 25 H       -3.6700    -0.4620     1.1690 H     1 <1>   0.0000 
 26 C       -6.1770    -3.9980     0.3570 C.3   1 <1>   0.0000 
 27 H       -6.2770    -3.1630    -0.3490 H     1 <1>   0.0000 
 28 H       -6.4930    -3.6050     1.3340 H     1 <1>   0.0000 
 29 C       -7.1480    -5.0990    -0.0650 C.3   1 <1>   0.0610 
 30 H       -7.1230    -5.9300     0.6460 H     1 <1>   0.0000 
 31 H       -6.8930    -5.4660    -1.0640 H     1 <1>   0.0000 
 32 C       -8.5710    -4.5920    -0.1180 C.2   1 <1>   0.6590 
 33 O       -8.9440    -3.4840     0.2420 O.2   1 <1>  -0.5700 
 34 O       -9.3820    -5.5690    -0.6140 O.3   1 <1>  -0.4300 
 35 C      -10.7570    -5.1910    -0.7060 C.3   1 <1>   0.2800 
 36 H      -10.8750    -4.3380    -1.3810 H     1 <1>   0.0000 
 37 H      -11.1580    -4.9620     0.2860 H     1 <1>   0.0000 
 38 H      -11.3140    -6.0370    -1.1180 H     1 <1>   0.0000 
 39 C       -0.9210    -4.6120     0.2810 C.ar  1 <1>  -0.1500 
 40 H       -1.2560    -3.6250     0.5810 H     1 <1>   0.1500 
 41 C        0.2480    -5.1130     0.8580 C.ar  1 <1>  -0.1500 
 42 H        0.7790    -4.5240     1.6020 H     1 <1>   0.1500 
@<TRIPOS>BOND
  1   1   2  1   
  2   2   3  ar  
  3   2  41  ar  
  4   3   4  1   
  5   3   5  ar  
  6   5   6  1   
  7   5   7  ar  
  8   7   8  1   
  9   7  39  ar  
 10   8   9  1   
 11   8  10  1   
 12   8  11  1   
 13  11  12  1   
 14  11  18  1   
 15  12  13  1   
 16  12  14  1   
 17  12  15  1   
 18  15  16  1   
 19  15  17  1   
 20  15  18  1   
 21  18  19  1   
 22  18  26  1   
 23  19  20  2   
 24  19  21  1   
 25  21  22  1   
 26  22  23  1   
 27  22  24  1   
 28  22  25  1   
 29  26  27  1   
 30  26  28  1   
 31  26  29  1   
 32  29  30  1   
 33  29  31  1   
 34  29  32  1   
 35  32  33  2   
 36  32  34  1   
 37  34  35  1   
 38  35  36  1   
 39  35  37  1   
 40  35  38  1   
 41  39  40  1   
 42  39  41  ar  
 43  41  42  1   
@<TRIPOS>SUBSTRUCTURE
  1 ****  18 GROUP 4 **** **** 0

# MOE 2022.02 (io_trps.svl 2020.11)

@<TRIPOS>MOLECULE
SEL136
31 32 1 0 0 
SMALL
USER_CHARGES


@<TRIPOS>ATOM
  1 H       -1.6320     6.7190     0.9860 H     1 <1>   0.4000 
  2 O       -1.5050     5.9540     0.3940 O.3   1 <1>  -0.6800 
  3 C       -0.1220     5.9600     0.0360 C.3   1 <1>   0.2800 
  4 H        0.4630     5.8540     0.9510 H     1 <1>   0.0000 
  5 H        0.1270     6.9310    -0.4050 H     1 <1>   0.0000 
  6 C        0.1610     4.8380    -0.9680 C.3   1 <1>   0.2800 
  7 H       -0.4610     5.0150    -1.8540 H     1 <1>   0.0000 
  8 O        1.5470     4.8560    -1.3790 O.3   1 <1>  -0.5600 
  9 C        2.1770     3.6730    -0.8370 C.3   1 <1>   0.5800 
 10 H        2.2460     2.9920    -1.6960 H     1 <1>   0.0000 
 11 N        3.5360     3.9690    -0.3810 N.am  1 <1>  -0.4690 
 12 C        4.5710     3.1510    -0.8050 C.2   1 <1>  -0.0410 
 13 H        4.3240     2.3340    -1.4770 H     1 <1>   0.1500 
 14 C        5.8340     3.3390    -0.4190 C.2   1 <1>  -0.1360 
 15 H        6.6550     2.7120    -0.7410 H     1 <1>   0.1500 
 16 C        6.1420     4.4490     0.4920 C.2   1 <1>   0.6160 
 17 O        7.2860     4.6540     0.8760 O.2   1 <1>  -0.5700 
 18 N        5.0760     5.2120     0.8660 N.am  1 <1>  -0.4900 
 19 H        5.2570     5.9830     1.4900 H     1 <1>   0.3700 
 20 C        3.7700     5.0430     0.4750 C.2   1 <1>   0.6900 
 21 O        2.9230     5.8310     0.8860 O.2   1 <1>  -0.5700 
 22 C        1.2160     3.0630     0.1970 C.3   1 <1>   0.3400 
 23 F        1.3280     3.6940     1.3980 F     1 <1>  -0.3400 
 24 C        1.4160     1.5790     0.4410 C.3   1 <1>   0.0000 
 25 H        0.6710     1.2030     1.1500 H     1 <1>   0.0000 
 26 H        1.3380     0.9990    -0.4830 H     1 <1>   0.0000 
 27 H        2.3990     1.3930     0.8860 H     1 <1>   0.0000 
 28 C       -0.1150     3.4220    -0.4470 C.3   1 <1>   0.2800 
 29 H       -0.2730     2.7670    -1.3150 H     1 <1>   0.0000 
 30 O       -1.2370     3.2470     0.4000 O.3   1 <1>  -0.6800 
 31 H       -1.6170     4.1340     0.5820 H     1 <1>   0.4000 
@<TRIPOS>BOND
  1   1   2  1   
  2   2   3  1   
  3   3   4  1   
  4   3   5  1   
  5   3   6  1   
  6   6   7  1   
  7   6   8  1   
  8   6  28  1   
  9   8   9  1   
 10   9  10  1   
 11   9  11  1   
 12   9  22  1   
 13  11  12  1   
 14  11  20  am  
 15  12  13  1   
 16  12  14  2   
 17  14  15  1   
 18  14  16  1   
 19  16  17  2   
 20  16  18  am  
 21  18  19  1   
 22  18  20  am  
 23  20  21  2   
 24  22  23  1   
 25  22  24  1   
 26  22  28  1   
 27  24  25  1   
 28  24  26  1   
 29  24  27  1   
 30  28  29  1   
 31  28  30  1   
 32  30  31  1   
@<TRIPOS>SUBSTRUCTURE
  1 ****   9 GROUP 4 **** **** 0

# MOE 2022.02 (io_trps.svl 2020.11)

@<TRIPOS>MOLECULE
SEL137
23 24 1 0 0 
SMALL
USER_CHARGES


@<TRIPOS>ATOM
  1 H       10.0250     1.7270     0.1590 H     1 <1>   0.4000 
  2 O        9.1540     1.3030     0.0730 O.3   1 <1>  -0.6800 
  3 C        8.1850     2.3480     0.0850 C.3   1 <1>   0.2800 
  4 H        8.3990     3.0230    -0.7500 H     1 <1>   0.0000 
  5 H        8.2910     2.9040     1.0220 H     1 <1>   0.0000 
  6 C        6.7870     1.7500    -0.0390 C.3   1 <1>   0.1810 
  7 H        6.6410     1.0270     0.7740 H     1 <1>   0.0000 
  8 H        6.7320     1.1650    -0.9670 H     1 <1>   0.0000 
  9 C        5.6630     2.7420    -0.0210 C.2   1 <1>  -0.1810 
 10 C        5.7350     4.1220    -0.0160 C.2   1 <1>  -0.3020 
 11 H        6.5810     4.7960    -0.0220 H     1 <1>   0.1500 
 12 N        4.4620     4.6260    -0.0020 N.pl3 1 <1>   0.0330 
 13 H        4.2240     5.6080     0.0070 H     1 <1>   0.2700 
 14 C        3.5440     3.6020    -0.0010 C.ar  1 <1>  -0.1520 
 15 C        2.1440     3.6470     0.0090 C.ar  1 <1>  -0.1500 
 16 H        1.6040     4.5880     0.0180 H     1 <1>   0.1500 
 17 C        1.4610     2.4280     0.0050 C.ar  1 <1>  -0.1500 
 18 H        0.3750     2.4090     0.0110 H     1 <1>   0.1500 
 19 C        2.1600     1.2280    -0.0080 C.ar  1 <1>   0.1900 
 20 F        1.4780     0.0750    -0.0120 F     1 <1>  -0.1900 
 21 C        3.5540     1.1920    -0.0170 C.ar  1 <1>  -0.1500 
 22 H        4.0690     0.2370    -0.0280 H     1 <1>   0.1500 
 23 C        4.2670     2.4080    -0.0140 C.ar  1 <1>   0.0000 
@<TRIPOS>BOND
  1   1   2  1   
  2   2   3  1   
  3   3   4  1   
  4   3   5  1   
  5   3   6  1   
  6   6   7  1   
  7   6   8  1   
  8   6   9  1   
  9   9  10  2   
 10   9  23  1   
 11  10  11  1   
 12  10  12  1   
 13  12  13  1   
 14  12  14  1   
 15  14  15  ar  
 16  14  23  ar  
 17  15  16  1   
 18  15  17  ar  
 19  17  18  1   
 20  17  19  ar  
 21  19  20  1   
 22  19  21  ar  
 23  21  22  1   
 24  21  23  ar  
@<TRIPOS>SUBSTRUCTURE
  1 ****  23 GROUP 4 **** **** 0

# MOE 2022.02 (io_trps.svl 2020.11)

@<TRIPOS>MOLECULE
SEL138
21 21 1 0 0 
SMALL
USER_CHARGES


@<TRIPOS>ATOM
  1 H        7.9040     1.6720    -0.8650 H     1 <1>   0.0000 
  2 C        6.8430     1.4480    -1.0040 C.3   1 <1>   0.0000 
  3 H        6.5070     1.8960    -1.9440 H     1 <1>   0.0000 
  4 H        6.7200     0.3650    -1.1050 H     1 <1>   0.0000 
  5 C        6.0230     1.9720     0.1600 C.3   1 <1>   0.2800 
  6 H        6.1410     3.0580     0.2370 H     1 <1>   0.0000 
  7 H        6.3560     1.4970     1.0900 H     1 <1>   0.0000 
  8 O        4.6490     1.6520    -0.0830 O.3   1 <1>  -0.4300 
  9 C        3.8080     2.0510     0.9070 C.2   1 <1>   0.7200 
 10 O        4.1210     2.6410     1.9310 O.2   1 <1>  -0.5700 
 11 C        2.3850     1.7090     0.5920 C.3   1 <1>  -0.0950 
 12 C        1.5790     2.7950    -0.0760 C.3   1 <1>   0.0950 
 13 H        2.0370     3.0720    -1.0310 H     1 <1>   0.0000 
 14 H        1.5420     3.6850     0.5600 H     1 <1>   0.0000 
 15 H        0.5490     2.4800    -0.2760 H     1 <1>   0.0000 
 16 C        1.6510     0.8130     1.5790 C.3   1 <1>  -0.2000 
 17 H        0.5990     0.9990     1.7650 H     1 <1>   0.1000 
 18 H        2.1910     0.4650     2.4530 H     1 <1>   0.1000 
 19 C        2.0480     0.2680     0.2400 C.3   1 <1>  -0.2000 
 20 H        1.2660     0.0810    -0.4870 H     1 <1>   0.1000 
 21 H        2.8530    -0.4590     0.2080 H     1 <1>   0.1000 
@<TRIPOS>BOND
  1   1   2  1   
  2   2   3  1   
  3   2   4  1   
  4   2   5  1   
  5   5   6  1   
  6   5   7  1   
  7   5   8  1   
  8   8   9  1   
  9   9  10  2   
 10   9  11  1   
 11  11  12  1   
 12  11  16  1   
 13  11  19  1   
 14  12  13  1   
 15  12  14  1   
 16  12  15  1   
 17  16  17  1   
 18  16  18  1   
 19  16  19  1   
 20  19  20  1   
 21  19  21  1   
@<TRIPOS>SUBSTRUCTURE
  1 ****   9 GROUP 4 **** **** 0

# MOE 2022.02 (io_trps.svl 2020.11)

@<TRIPOS>MOLECULE
SEL139
22 22 1 0 0 
SMALL
USER_CHARGES


@<TRIPOS>ATOM
  1 H       10.4200    -1.4540    -1.6620 H     1 <1>   0.4000 
  2 O       10.0510    -1.4120    -0.7630 O.3   1 <1>  -0.6800 
  3 C        8.6650    -1.7210    -0.8780 C.3   1 <1>   0.2800 
  4 H        8.2200    -1.0620    -1.6300 H     1 <1>   0.0000 
  5 H        8.5720    -2.7550    -1.2260 H     1 <1>   0.0000 
  6 C        7.9810    -1.5460     0.4770 C.3   1 <1>   0.3000 
  7 H        7.9870    -0.4880     0.7630 H     1 <1>   0.0000 
  8 H        8.5310    -2.0910     1.2520 H     1 <1>   0.0000 
  9 N        6.6170    -2.0270     0.4920 N.am  1 <1>  -0.7300 
 10 H        6.3750    -2.8810     0.9890 H     1 <1>   0.3700 
 11 C        5.5810    -1.3720    -0.1380 C.2   1 <1>   0.5440 
 12 O        5.7170    -0.3410    -0.7880 O.2   1 <1>  -0.5700 
 13 C        4.2460    -2.0340     0.0250 C.ar  1 <1>   0.3960 
 14 N        4.2310    -3.1900     0.7500 N.ar  1 <1>  -0.6200 
 15 C        3.0290    -3.7870     0.8970 C.ar  1 <1>   0.1600 
 16 H        3.0340    -4.7050     1.4780 H     1 <1>   0.1500 
 17 C        1.8490    -3.2940     0.3580 C.ar  1 <1>  -0.1500 
 18 H        0.9120    -3.8180     0.5100 H     1 <1>   0.1500 
 19 C        1.8970    -2.1130    -0.3780 C.ar  1 <1>  -0.1500 
 20 H        0.9910    -1.7000    -0.8130 H     1 <1>   0.1500 
 21 C        3.1170    -1.4660    -0.5520 C.ar  1 <1>  -0.1500 
 22 H        3.1850    -0.5440    -1.1200 H     1 <1>   0.1500 
@<TRIPOS>BOND
  1   1   2  1   
  2   2   3  1   
  3   3   4  1   
  4   3   5  1   
  5   3   6  1   
  6   6   7  1   
  7   6   8  1   
  8   6   9  1   
  9   9  10  1   
 10   9  11  am  
 11  11  12  2   
 12  11  13  1   
 13  13  14  ar  
 14  13  21  ar  
 15  14  15  ar  
 16  15  16  1   
 17  15  17  ar  
 18  17  18  1   
 19  17  19  ar  
 20  19  20  1   
 21  19  21  ar  
 22  21  22  1   
@<TRIPOS>SUBSTRUCTURE
  1 ****  11 GROUP 4 **** **** 0

# MOE 2022.02 (io_trps.svl 2020.11)

@<TRIPOS>MOLECULE
SEL140
17 18 1 0 0 
SMALL
USER_CHARGES


@<TRIPOS>ATOM
  1 H        2.8330     2.8160     0.0100 H     1 <1>   0.1500 
  2 C        1.7480     2.8760     0.0060 C.ar  1 <1>  -0.1500 
  3 C        0.9850     1.7140     0.0070 C.ar  1 <1>  -0.1500 
  4 H        1.4730     0.7420     0.0120 H     1 <1>   0.1500 
  5 C       -0.4100     1.7950     0.0020 C.ar  1 <1>  -0.1500 
  6 H       -0.9680     0.8580     0.0040 H     1 <1>   0.1500 
  7 C       -1.0660     3.0420    -0.0030 C.ar  1 <1>  -0.0230 
  8 N       -2.4920     3.0580    -0.0080 N.pl3 1 <1>   0.5930 
  9 N       -3.1820     1.8780    -0.0460 N.2   1 <1>  -0.4180 
 10 N       -4.4700     2.1850    -0.0550 N.2   1 <1>   0.0000 
 11 N       -4.6540     3.5360    -0.0140 N.2   1 <1>  -0.3380 
 12 C       -3.4500     4.0560     0.0180 C.2   1 <1>   0.3100 
 13 CL      -3.1650     5.7270     0.1050 Cl    1 <1>  -0.1240 
 14 C       -0.2830     4.2020    -0.0070 C.ar  1 <1>  -0.1500 
 15 H       -0.6920     5.2030    -0.0220 H     1 <1>   0.1500 
 16 C        1.1150     4.1150    -0.0020 C.ar  1 <1>  -0.1500 
 17 H        1.7140     5.0240    -0.0050 H     1 <1>   0.1500 
@<TRIPOS>BOND
  1   1   2  1   
  2   2   3  ar  
  3   2  16  ar  
  4   3   4  1   
  5   3   5  ar  
  6   5   6  1   
  7   5   7  ar  
  8   7   8  1   
  9   7  14  ar  
 10   8   9  1   
 11   8  12  1   
 12   9  10  2   
 13  10  11  1   
 14  11  12  2   
 15  12  13  1   
 16  14  15  1   
 17  14  16  ar  
 18  16  17  1   
@<TRIPOS>SUBSTRUCTURE
  1 ****   7 GROUP 4 **** **** 0

# MOE 2022.02 (io_trps.svl 2020.11)

@<TRIPOS>MOLECULE
SEL141
21 21 1 0 0 
SMALL
USER_CHARGES


@<TRIPOS>ATOM
  1 H        0.5990     3.8560     0.0800 H     1 <1>   0.1500 
  2 C        0.0640     2.9080     0.0470 C.ar  1 <1>  -0.1500 
  3 C       -1.3320     2.9200    -0.0170 C.ar  1 <1>  -0.1500 
  4 H       -1.8540     3.8740    -0.0280 H     1 <1>   0.1500 
  5 C       -2.0480     1.7200    -0.0670 C.ar  1 <1>  -0.1440 
  6 C       -3.5490     1.7330    -0.1030 C.3   1 <1>   0.1440 
  7 H       -3.9180     2.6070    -0.6510 H     1 <1>   0.0000 
  8 H       -3.9470     1.7600     0.9160 H     1 <1>   0.0000 
  9 H       -3.9360     0.8440    -0.6110 H     1 <1>   0.0000 
 10 C       -1.3490     0.5090    -0.0260 C.ar  1 <1>  -0.1500 
 11 H       -1.8920    -0.4350    -0.0430 H     1 <1>   0.1500 
 12 C        0.0490     0.4930     0.0380 C.ar  1 <1>  -0.1500 
 13 H        0.5400    -0.4750     0.0660 H     1 <1>   0.1500 
 14 C        0.7660     1.6950     0.0710 C.ar  1 <1>   0.0860 
 15 C        2.2610     1.7430     0.1380 C.2   1 <1>   0.4230 
 16 O        2.8140     2.8360     0.2320 O.2   1 <1>  -0.5700 
 17 C        3.0220     0.4380     0.0910 C.3   1 <1>   0.2610 
 18 H        2.7510    -0.1580     0.9690 H     1 <1>   0.0000 
 19 H        2.7350    -0.1060    -0.8150 H     1 <1>   0.0000 
 20 C        4.4750     0.6360     0.0800 C.1   1 <1>   0.3570 
 21 N        5.6340     0.7190     0.0660 N.1   1 <1>  -0.5570 
@<TRIPOS>BOND
  1   1   2  1   
  2   2   3  ar  
  3   2  14  ar  
  4   3   4  1   
  5   3   5  ar  
  6   5   6  1   
  7   5  10  ar  
  8   6   7  1   
  9   6   8  1   
 10   6   9  1   
 11  10  11  1   
 12  10  12  ar  
 13  12  13  1   
 14  12  14  ar  
 15  14  15  1   
 16  15  16  2   
 17  15  17  1   
 18  17  18  1   
 19  17  19  1   
 20  17  20  1   
 21  20  21  3   
@<TRIPOS>SUBSTRUCTURE
  1 ****  14 GROUP 4 **** **** 0

# MOE 2022.02 (io_trps.svl 2020.11)

@<TRIPOS>MOLECULE
SEL142
22 21 1 0 0 
SMALL
USER_CHARGES


@<TRIPOS>ATOM
  1 H        0.7460    -2.0120     1.1970 H     1 <1>   0.0000 
  2 C        0.5030    -1.2550     0.4440 C.3   1 <1>   0.1220 
  3 H        0.5530    -1.7110    -0.5500 H     1 <1>   0.0000 
  4 C        1.5020    -0.1480     0.5460 C.2   1 <1>   0.6590 
  5 O        1.2240     1.0060     0.8360 O.2   1 <1>  -0.5700 
  6 O        2.7460    -0.6200     0.2660 O.3   1 <1>  -0.4300 
  7 C        3.8200     0.3410     0.3150 C.3   1 <1>   0.2800 
  8 H        3.6580     1.0550     1.1320 H     1 <1>   0.0000 
  9 C        3.9080     1.0700    -1.0200 C.3   1 <1>   0.0000 
 10 H        4.7440     1.7760    -1.0320 H     1 <1>   0.0000 
 11 H        2.9860     1.6260    -1.2230 H     1 <1>   0.0000 
 12 H        4.0340     0.3610    -1.8460 H     1 <1>   0.0000 
 13 C        5.1030    -0.4320     0.5960 C.3   1 <1>   0.0000 
 14 H        5.0230    -0.9680     1.5470 H     1 <1>   0.0000 
 15 H        5.2840    -1.1870    -0.1770 H     1 <1>   0.0000 
 16 H        5.9680     0.2370     0.6440 H     1 <1>   0.0000 
 17 C       -0.9080    -0.7850     0.6740 C.2   1 <1>   0.4480 
 18 O       -1.5880    -1.2850     1.5770 O.2   1 <1>  -0.5700 
 19 C       -1.4350     0.2760    -0.2800 C.3   1 <1>   1.0810 
 20 F       -2.6430    -0.0720    -0.8060 F     1 <1>  -0.3400 
 21 F       -0.6120     0.4690    -1.3490 F     1 <1>  -0.3400 
 22 F       -1.6070     1.4870     0.3100 F     1 <1>  -0.3400 
@<TRIPOS>BOND
  1   1   2  1   
  2   2   3  1   
  3   2   4  1   
  4   2  17  1   
  5   4   5  2   
  6   4   6  1   
  7   6   7  1   
  8   7   8  1   
  9   7   9  1   
 10   7  13  1   
 11   9  10  1   
 12   9  11  1   
 13   9  12  1   
 14  13  14  1   
 15  13  15  1   
 16  13  16  1   
 17  17  18  2   
 18  17  19  1   
 19  19  20  1   
 20  19  21  1   
 21  19  22  1   
@<TRIPOS>SUBSTRUCTURE
  1 ****   4 GROUP 4 **** **** 0

# MOE 2022.02 (io_trps.svl 2020.11)

@<TRIPOS>MOLECULE
SEL143
20 20 1 0 0 
SMALL
USER_CHARGES


@<TRIPOS>ATOM
  1 H       -4.6060     0.2240    -2.3210 H     1 <1>   0.1500 
  2 C       -4.3250    -0.5200    -1.5810 C.ar  1 <1>  -0.1500 
  3 C       -2.9850    -0.8890    -1.4410 C.ar  1 <1>  -0.1500 
  4 H       -2.2330    -0.4260    -2.0760 H     1 <1>   0.1500 
  5 C       -2.6030    -1.8460    -0.4950 C.ar  1 <1>   0.0820 
  6 O       -1.2620    -2.1130    -0.4650 O.3   1 <1>  -0.3630 
  7 C       -0.8160    -3.0810     0.4810 C.3   1 <1>   0.3410 
  8 H       -1.2860    -4.0520     0.2800 H     1 <1>   0.0000 
  9 H       -1.0510    -2.7510     1.5010 H     1 <1>   0.0000 
 10 C        0.6960    -3.2630     0.3810 C.2   1 <1>   0.3790 
 11 S        1.5310    -4.3150     1.3710 S.2   1 <1>  -0.3800 
 12 N        1.3580    -2.5290    -0.5580 N.am  1 <1>  -0.8000 
 13 H        0.8510    -1.8880    -1.1610 H     1 <1>   0.3700 
 14 H        2.3610    -2.6140    -0.6660 H     1 <1>   0.3700 
 15 C       -3.5770    -2.4340     0.3140 C.ar  1 <1>  -0.1500 
 16 H       -3.3310    -3.1810     1.0620 H     1 <1>   0.1500 
 17 C       -4.9210    -2.0660     0.1760 C.ar  1 <1>  -0.1500 
 18 H       -5.6730    -2.5290     0.8090 H     1 <1>   0.1500 
 19 C       -5.2890    -1.1120    -0.7700 C.ar  1 <1>   0.1770 
 20 CL      -6.9410    -0.6640    -0.9360 Cl    1 <1>  -0.1770 
@<TRIPOS>BOND
  1   1   2  1   
  2   2   3  ar  
  3   2  19  ar  
  4   3   4  1   
  5   3   5  ar  
  6   5   6  1   
  7   5  15  ar  
  8   6   7  1   
  9   7   8  1   
 10   7   9  1   
 11   7  10  1   
 12  10  11  2   
 13  10  12  am  
 14  12  13  1   
 15  12  14  1   
 16  15  16  1   
 17  15  17  ar  
 18  17  18  1   
 19  17  19  ar  
 20  19  20  1   
@<TRIPOS>SUBSTRUCTURE
  1 ****   5 GROUP 4 **** **** 0

# MOE 2022.02 (io_trps.svl 2020.11)

@<TRIPOS>MOLECULE
SEL144
26 27 1 0 0 
SMALL
USER_CHARGES


@<TRIPOS>ATOM
  1 H       -4.3650     4.0000    -2.4160 H     1 <1>   0.1500 
  2 C       -3.4290     3.8420    -1.8830 C.ar  1 <1>   0.1600 
  3 N       -3.2150     4.7070    -0.8660 N.ar  1 <1>  -0.5670 
  4 C       -2.0500     4.4850    -0.2300 C.ar  1 <1>   0.1050 
  5 C       -1.1030     3.5050    -0.5060 C.ar  1 <1>   0.0000 
  6 C       -1.3790     2.6350    -1.5750 C.ar  1 <1>  -0.1500 
  7 H       -0.6890     1.8460    -1.8550 H     1 <1>   0.1500 
  8 C       -2.5750     2.8190    -2.2710 C.ar  1 <1>  -0.1500 
  9 H       -2.8350     2.1730    -3.1030 H     1 <1>   0.1500 
 10 C       -0.0370     3.6670     0.4390 C.2   1 <1>  -0.1810 
 11 C        1.2060     2.8370     0.5450 C.3   1 <1>   0.4510 
 12 H        1.1640     1.9710    -0.1270 H     1 <1>   0.0000 
 13 H        1.2410     2.4400     1.5690 H     1 <1>   0.0000 
 14 N        2.4030     3.6550     0.2870 N.3   1 <1>  -0.8100 
 15 C        3.6050     2.9140     0.6740 C.3   1 <1>   0.2700 
 16 H        3.5770     2.6620     1.7400 H     1 <1>   0.0000 
 17 H        3.7210     1.9870     0.1020 H     1 <1>   0.0000 
 18 H        4.5010     3.5270     0.5230 H     1 <1>   0.0000 
 19 C        2.4950     4.0450    -1.1230 C.3   1 <1>   0.2700 
 20 H        2.5200     3.1770    -1.7910 H     1 <1>   0.0000 
 21 H        3.4010     4.6370    -1.2980 H     1 <1>   0.0000 
 22 H        1.6560     4.6850    -1.4180 H     1 <1>   0.0000 
 23 C       -0.3910     4.7340     1.2520 C.2   1 <1>  -0.3020 
 24 H        0.1310     5.1900     2.0840 H     1 <1>   0.1500 
 25 N       -1.6000     5.2190     0.8310 N.pl3 1 <1>   0.0330 
 26 H       -2.1050     5.9980     1.2250 H     1 <1>   0.2700 
@<TRIPOS>BOND
  1   1   2  1   
  2   2   3  ar  
  3   2   8  ar  
  4   3   4  ar  
  5   4   5  ar  
  6   4  25  1   
  7   5   6  ar  
  8   5  10  1   
  9   6   7  1   
 10   6   8  ar  
 11   8   9  1   
 12  10  11  1   
 13  10  23  2   
 14  11  12  1   
 15  11  13  1   
 16  11  14  1   
 17  14  15  1   
 18  14  19  1   
 19  15  16  1   
 20  15  17  1   
 21  15  18  1   
 22  19  20  1   
 23  19  21  1   
 24  19  22  1   
 25  23  24  1   
 26  23  25  1   
 27  25  26  1   
@<TRIPOS>SUBSTRUCTURE
  1 ****   5 GROUP 4 **** **** 0

# MOE 2022.02 (io_trps.svl 2020.11)

@<TRIPOS>MOLECULE
SEL145
23 23 1 0 0 
SMALL
USER_CHARGES


@<TRIPOS>ATOM
  1 H        8.4640     2.0280    -1.2530 H     1 <1>   0.4000 
  2 O        8.0800     2.2870    -0.3980 O.3   1 <1>  -0.6800 
  3 C        6.7170     2.6280    -0.6550 C.3   1 <1>   0.2800 
  4 H        6.2530     1.8050    -1.2070 H     1 <1>   0.0000 
  5 H        6.7100     3.5180    -1.2940 H     1 <1>   0.0000 
  6 C        5.9810     2.9010     0.6600 C.3   1 <1>   0.3690 
  7 H        5.8970     1.9770     1.2480 H     1 <1>   0.0000 
  8 H        6.6050     3.5550     1.2830 H     1 <1>   0.0000 
  9 N        4.6740     3.5240     0.4350 N.pl3 1 <1>  -0.8380 
 10 C        3.6060     2.7180     0.0840 C.ar  1 <1>   0.4100 
 11 N        3.8370     1.3990    -0.1100 N.ar  1 <1>  -0.6200 
 12 C        2.8080     0.5920    -0.4550 C.ar  1 <1>   0.1600 
 13 H        3.0700    -0.4530    -0.5880 H     1 <1>   0.1500 
 14 C        1.5120     1.0300    -0.6300 C.ar  1 <1>  -0.1500 
 15 H        0.7230     0.3410    -0.9070 H     1 <1>   0.1500 
 16 C        1.2620     2.3770    -0.4380 C.ar  1 <1>  -0.1500 
 17 H        0.2590     2.7750    -0.5610 H     1 <1>   0.1500 
 18 C        2.3140     3.2230    -0.0790 C.ar  1 <1>  -0.1500 
 19 H        2.0980     4.2730     0.0740 H     1 <1>   0.1500 
 20 C        4.5560     4.9610     0.5770 C.3   1 <1>   0.3690 
 21 H        4.1750     5.4170    -0.3430 H     1 <1>   0.0000 
 22 H        5.5250     5.4290     0.7830 H     1 <1>   0.0000 
 23 H        3.8900     5.2170     1.4090 H     1 <1>   0.0000 
@<TRIPOS>BOND
  1   1   2  1   
  2   2   3  1   
  3   3   4  1   
  4   3   5  1   
  5   3   6  1   
  6   6   7  1   
  7   6   8  1   
  8   6   9  1   
  9   9  10  1   
 10   9  20  1   
 11  10  11  ar  
 12  10  18  ar  
 13  11  12  ar  
 14  12  13  1   
 15  12  14  ar  
 16  14  15  1   
 17  14  16  ar  
 18  16  17  1   
 19  16  18  ar  
 20  18  19  1   
 21  20  21  1   
 22  20  22  1   
 23  20  23  1   
@<TRIPOS>SUBSTRUCTURE
  1 ****  10 GROUP 4 **** **** 0

# MOE 2022.02 (io_trps.svl 2020.11)

@<TRIPOS>MOLECULE
SEL146
23 24 1 0 0 
SMALL
USER_CHARGES


@<TRIPOS>ATOM
  1 H        2.7520    -2.2010     0.8540 H     1 <1>   0.1500 
  2 C        1.8590    -2.7430     0.5540 C.ar  1 <1>   0.1600 
  3 N        0.6960    -2.0780     0.7320 N.ar  1 <1>  -0.6200 
  4 C       -0.4290    -2.7280     0.3720 C.ar  1 <1>   0.4270 
  5 C       -0.4460    -4.0130    -0.1630 C.ar  1 <1>   0.0820 
  6 C        0.7680    -4.6640    -0.3460 C.ar  1 <1>  -0.1500 
  7 H        0.7960    -5.6630    -0.7710 H     1 <1>   0.1500 
  8 C        1.9460    -4.0220     0.0240 C.ar  1 <1>  -0.1500 
  9 H        2.9090    -4.5050    -0.1020 H     1 <1>   0.1500 
 10 O       -1.5740    -4.6680    -0.5610 O.3   1 <1>  -0.3630 
 11 C       -2.8020    -4.1080    -0.0820 C.3   1 <1>   0.3410 
 12 C       -3.8480    -4.3920    -1.1670 C.3   1 <1>   0.0000 
 13 H       -3.5990    -3.8520    -2.0880 H     1 <1>   0.0000 
 14 H       -4.8550    -4.0890    -0.8610 H     1 <1>   0.0000 
 15 H       -3.8700    -5.4570    -1.4240 H     1 <1>   0.0000 
 16 C       -3.1830    -4.8660     1.1980 C.3   1 <1>   0.0000 
 17 H       -4.1580    -4.5470     1.5840 H     1 <1>   0.0000 
 18 H       -2.4420    -4.6990     1.9890 H     1 <1>   0.0000 
 19 H       -3.2140    -5.9470     1.0210 H     1 <1>   0.0000 
 20 C       -2.8280    -2.5940     0.2410 C.2   1 <1>   0.5690 
 21 O       -3.8630    -1.9320     0.3190 O.2   1 <1>  -0.5700 
 22 N       -1.6170    -2.0350     0.5190 N.am  1 <1>  -0.5470 
 23 H       -1.5680    -1.0770     0.8340 H     1 <1>   0.3700 
@<TRIPOS>BOND
  1   1   2  1   
  2   2   3  ar  
  3   2   8  ar  
  4   3   4  ar  
  5   4   5  ar  
  6   4  22  1   
  7   5   6  ar  
  8   5  10  1   
  9   6   7  1   
 10   6   8  ar  
 11   8   9  1   
 12  10  11  1   
 13  11  12  1   
 14  11  16  1   
 15  11  20  1   
 16  12  13  1   
 17  12  14  1   
 18  12  15  1   
 19  16  17  1   
 20  16  18  1   
 21  16  19  1   
 22  20  21  2   
 23  20  22  am  
 24  22  23  1   
@<TRIPOS>SUBSTRUCTURE
  1 ****   5 GROUP 4 **** **** 0

# MOE 2022.02 (io_trps.svl 2020.11)

@<TRIPOS>MOLECULE
SEL147
23 23 1 0 0 
SMALL
USER_CHARGES


@<TRIPOS>ATOM
  1 H       -5.2560     3.0000    -0.5920 H     1 <1>   0.1500 
  2 C       -4.1840     2.9980    -0.4130 C.ar  1 <1>  -0.1500 
  3 C       -3.3390     3.7470    -1.2290 C.ar  1 <1>  -0.1500 
  4 H       -3.7520     4.3330    -2.0460 H     1 <1>   0.1500 
  5 C       -1.9610     3.7450    -1.0000 C.ar  1 <1>  -0.1500 
  6 H       -1.3190     4.3330    -1.6520 H     1 <1>   0.1500 
  7 C       -1.4110     2.9940     0.0500 C.ar  1 <1>  -0.1440 
  8 C        0.0910     2.9870     0.2780 C.3   1 <1>   0.4140 
  9 H        0.5390     3.7760    -0.3410 H     1 <1>   0.0000 
 10 N        0.4040     3.3070     1.6740 N.3   1 <1>  -0.9900 
 11 H        1.4030     3.4730     1.7680 H     1 <1>   0.3600 
 12 H       -0.0550     4.1850     1.9140 H     1 <1>   0.3600 
 13 C        0.6980     1.6350    -0.1410 C.3   1 <1>   0.0000 
 14 H        0.3700     1.3910    -1.1600 H     1 <1>   0.0000 
 15 H        0.3280     0.8270     0.5030 H     1 <1>   0.0000 
 16 C        2.2220     1.6220    -0.1190 C.3   1 <1>   0.0000 
 17 H        2.5930     0.6670    -0.5070 H     1 <1>   0.0000 
 18 H        2.6110     1.7410     0.8960 H     1 <1>   0.0000 
 19 H        2.6300     2.4220    -0.7450 H     1 <1>   0.0000 
 20 C       -2.2770     2.2440     0.8630 C.ar  1 <1>  -0.1500 
 21 H       -1.8730     1.6560     1.6850 H     1 <1>   0.1500 
 22 C       -3.6530     2.2470     0.6330 C.ar  1 <1>  -0.1500 
 23 H       -4.3100     1.6620     1.2720 H     1 <1>   0.1500 
@<TRIPOS>BOND
  1   1   2  1   
  2   2   3  ar  
  3   2  22  ar  
  4   3   4  1   
  5   3   5  ar  
  6   5   6  1   
  7   5   7  ar  
  8   7   8  1   
  9   7  20  ar  
 10   8   9  1   
 11   8  10  1   
 12   8  13  1   
 13  10  11  1   
 14  10  12  1   
 15  13  14  1   
 16  13  15  1   
 17  13  16  1   
 18  16  17  1   
 19  16  18  1   
 20  16  19  1   
 21  20  21  1   
 22  20  22  ar  
 23  22  23  1   
@<TRIPOS>SUBSTRUCTURE
  1 ****   7 GROUP 4 **** **** 0

# MOE 2022.02 (io_trps.svl 2020.11)

@<TRIPOS>MOLECULE
SEL148
20 21 1 0 0 
SMALL
USER_CHARGES


@<TRIPOS>ATOM
  1 H       -0.5070    -1.9360    -0.1360 H     1 <1>   0.4000 
  2 N        0.2500    -2.5830    -0.3800 N.2   1 <1>  -0.8500 
  3 C        1.3550    -1.9700    -0.1650 C.2   1 <1>   0.5860 
  4 O        1.4070    -0.6800     0.3050 O.3   1 <1>  -0.1290 
  5 N        2.7560    -0.3890     0.4070 N.pl3 1 <1>  -0.5210 
  6 H        3.0940     0.4990     0.7510 H     1 <1>   0.4000 
  7 C        3.5090    -1.4470     0.0070 C.2   1 <1>   0.0720 
  8 C        4.9720    -1.4110    -0.0090 C.ar  1 <1>   0.0280 
  9 C        5.6540    -0.2460    -0.3940 C.ar  1 <1>  -0.1500 
 10 H        5.1040     0.6370    -0.7120 H     1 <1>   0.1500 
 11 C        7.0520    -0.2050    -0.4030 C.ar  1 <1>  -0.1500 
 12 H        7.5630     0.7030    -0.7110 H     1 <1>   0.1500 
 13 C        7.7800    -1.3290    -0.0210 C.ar  1 <1>   0.1770 
 14 CL       9.4990    -1.2790    -0.0310 Cl    1 <1>  -0.1770 
 15 C        7.1220    -2.4930     0.3670 C.ar  1 <1>  -0.1500 
 16 H        7.6880    -3.3710     0.6690 H     1 <1>   0.1500 
 17 C        5.7240    -2.5330     0.3730 C.ar  1 <1>  -0.1500 
 18 H        5.2300    -3.4480     0.6930 H     1 <1>   0.1500 
 19 C        2.7250    -2.4660    -0.3600 C.2   1 <1>  -0.1360 
 20 H        2.9720    -3.4400    -0.7340 H     1 <1>   0.1500 
@<TRIPOS>BOND
  1   1   2  1   
  2   2   3  2   
  3   3   4  1   
  4   3  19  1   
  5   4   5  1   
  6   5   6  1   
  7   5   7  1   
  8   7   8  1   
  9   7  19  2   
 10   8   9  ar  
 11   8  17  ar  
 12   9  10  1   
 13   9  11  ar  
 14  11  12  1   
 15  11  13  ar  
 16  13  14  1   
 17  13  15  ar  
 18  15  16  1   
 19  15  17  ar  
 20  17  18  1   
 21  19  20  1   
@<TRIPOS>SUBSTRUCTURE
  1 ****   8 GROUP 4 **** **** 0

# MOE 2022.02 (io_trps.svl 2020.11)

@<TRIPOS>MOLECULE
SEL149
26 26 1 0 0 
SMALL
USER_CHARGES


@<TRIPOS>ATOM
  1 H       -5.6510    -0.8320     0.0200 H     1 <1>   0.1500 
  2 C       -4.7310    -1.4070     0.0750 C.ar  1 <1>  -0.1500 
  3 C       -3.5080    -0.7450    -0.0800 C.ar  1 <1>  -0.1500 
  4 H       -3.5100     0.3290    -0.2510 H     1 <1>   0.1500 
  5 C       -2.2940    -1.4450    -0.0160 C.ar  1 <1>  -0.1440 
  6 C       -1.0100    -0.6660    -0.2030 C.3   1 <1>   0.1440 
  7 H       -1.0280     0.1800     0.4970 H     1 <1>   0.0000 
  8 H       -1.0180    -0.2490    -1.2180 H     1 <1>   0.0000 
  9 C        0.3020    -1.4320     0.0020 C.3   1 <1>   0.0000 
 10 H        0.3680    -2.2580    -0.7170 H     1 <1>   0.0000 
 11 H        0.3260    -1.8720     1.0070 H     1 <1>   0.0000 
 12 C        1.5130    -0.5140    -0.1770 C.3   1 <1>   0.0000 
 13 H        1.4660     0.3080     0.5460 H     1 <1>   0.0000 
 14 H        1.4970    -0.0680    -1.1780 H     1 <1>   0.0000 
 15 C        2.8190    -1.2690     0.0110 C.3   1 <1>   0.0000 
 16 H        2.9140    -2.0790    -0.7200 H     1 <1>   0.0000 
 17 H        3.6700    -0.5930    -0.1180 H     1 <1>   0.0000 
 18 H        2.8800    -1.7040     1.0140 H     1 <1>   0.0000 
 19 C       -2.3430    -2.8260     0.2000 C.ar  1 <1>  -0.1500 
 20 H       -1.4360    -3.4210     0.2530 H     1 <1>   0.1500 
 21 C       -3.5700    -3.4840     0.3540 C.ar  1 <1>  -0.1500 
 22 H       -3.5730    -4.5570     0.5220 H     1 <1>   0.1500 
 23 C       -4.7740    -2.7830     0.2930 C.ar  1 <1>   0.1000 
 24 N       -5.9820    -3.4370     0.4440 N.pl3 1 <1>  -0.9000 
 25 H       -6.8520    -2.9270     0.3970 H     1 <1>   0.4000 
 26 H       -6.0100    -4.4340     0.6030 H     1 <1>   0.4000 
@<TRIPOS>BOND
  1   1   2  1   
  2   2   3  ar  
  3   2  23  ar  
  4   3   4  1   
  5   3   5  ar  
  6   5   6  1   
  7   5  19  ar  
  8   6   7  1   
  9   6   8  1   
 10   6   9  1   
 11   9  10  1   
 12   9  11  1   
 13   9  12  1   
 14  12  13  1   
 15  12  14  1   
 16  12  15  1   
 17  15  16  1   
 18  15  17  1   
 19  15  18  1   
 20  19  20  1   
 21  19  21  ar  
 22  21  22  1   
 23  21  23  ar  
 24  23  24  1   
 25  24  25  1   
 26  24  26  1   
@<TRIPOS>SUBSTRUCTURE
  1 ****   5 GROUP 4 **** **** 0

# MOE 2022.02 (io_trps.svl 2020.11)

@<TRIPOS>MOLECULE
SEL150
24 25 1 0 0 
SMALL
USER_CHARGES


@<TRIPOS>ATOM
  1 H       -3.2840     2.1990     0.1360 H     1 <1>   0.1500 
  2 C       -2.3550     2.7610     0.0860 C.ar  1 <1>  -0.1500 
  3 C       -2.3740     4.1520     0.2000 C.ar  1 <1>  -0.1500 
  4 H       -3.3170     4.6740     0.3390 H     1 <1>   0.1500 
  5 C       -1.1810     4.8750     0.1400 C.ar  1 <1>  -0.1500 
  6 H       -1.1930     5.9570     0.2350 H     1 <1>   0.1500 
  7 C        0.0280     4.2040    -0.0310 C.ar  1 <1>   0.0820 
  8 C        0.0440     2.8130    -0.1740 C.ar  1 <1>   0.0820 
  9 C       -1.1450     2.0900    -0.1000 C.ar  1 <1>  -0.1500 
 10 H       -1.1310     1.0080    -0.1990 H     1 <1>   0.1500 
 11 O        1.1930     2.0940    -0.3810 O.3   1 <1>  -0.3630 
 12 C        2.2770     2.9460    -0.7720 C.3   1 <1>   0.2800 
 13 H        2.1440     3.2160    -1.8280 H     1 <1>   0.0000 
 14 H        3.1940     2.3520    -0.7000 H     1 <1>   0.0000 
 15 C        2.3410     4.1780     0.1200 C.3   1 <1>   0.3410 
 16 H        2.4030     3.9120     1.1840 H     1 <1>   0.0000 
 17 C        3.5790     4.9890    -0.2350 C.2   1 <1>   0.6590 
 18 O        3.5850     6.0980    -0.7540 O.2   1 <1>  -0.5700 
 19 O        4.7050     4.3020     0.1240 O.3   1 <1>  -0.4300 
 20 C        5.9240     4.9950    -0.1520 C.3   1 <1>   0.2800 
 21 H        6.7540     4.3600     0.1700 H     1 <1>   0.0000 
 22 H        5.9670     5.9330     0.4110 H     1 <1>   0.0000 
 23 H        6.0250     5.1790    -1.2260 H     1 <1>   0.0000 
 24 O        1.1630     4.9730    -0.0580 O.3   1 <1>  -0.3630 
@<TRIPOS>BOND
  1   1   2  1   
  2   2   3  ar  
  3   2   9  ar  
  4   3   4  1   
  5   3   5  ar  
  6   5   6  1   
  7   5   7  ar  
  8   7   8  ar  
  9   7  24  1   
 10   8   9  ar  
 11   8  11  1   
 12   9  10  1   
 13  11  12  1   
 14  12  13  1   
 15  12  14  1   
 16  12  15  1   
 17  15  16  1   
 18  15  17  1   
 19  15  24  1   
 20  17  18  2   
 21  17  19  1   
 22  19  20  1   
 23  20  21  1   
 24  20  22  1   
 25  20  23  1   
@<TRIPOS>SUBSTRUCTURE
  1 ****  24 GROUP 4 **** **** 0

# MOE 2022.02 (io_trps.svl 2020.11)

@<TRIPOS>MOLECULE
SEL151
16 16 1 0 0 
SMALL
USER_CHARGES


@<TRIPOS>ATOM
  1 H        0.4800    -0.9880    -0.1600 H     1 <1>   0.1500 
  2 C        0.0170    -0.0080    -0.0630 C.ar  1 <1>  -0.1500 
  3 C       -1.3750     0.0990    -0.1110 C.ar  1 <1>  -0.1500 
  4 H       -1.9740    -0.7990    -0.2500 H     1 <1>   0.1500 
  5 C       -1.9960     1.3480     0.0170 C.ar  1 <1>  -0.1440 
  6 C       -3.4900     1.4610    -0.0680 C.3   1 <1>   0.1440 
  7 H       -3.8460     2.3670     0.4340 H     1 <1>   0.0000 
  8 H       -3.9700     0.6080     0.4240 H     1 <1>   0.0000 
  9 H       -3.8040     1.4920    -1.1150 H     1 <1>   0.0000 
 10 C       -1.2030     2.4920     0.1710 C.ar  1 <1>  -0.1500 
 11 H       -1.6660     3.4740     0.2540 H     1 <1>   0.1500 
 12 C        0.1900     2.3870     0.2200 C.ar  1 <1>  -0.1500 
 13 H        0.7890     3.2870     0.3460 H     1 <1>   0.1500 
 14 C        0.8030     1.1360     0.1050 C.ar  1 <1>   0.0730 
 15 C        2.2310     1.0270     0.1550 C.1   1 <1>   0.4840 
 16 N        3.3880     0.9380     0.1960 N.1   1 <1>  -0.5570 
@<TRIPOS>BOND
  1   1   2  1   
  2   2   3  ar  
  3   2  14  ar  
  4   3   4  1   
  5   3   5  ar  
  6   5   6  1   
  7   5  10  ar  
  8   6   7  1   
  9   6   8  1   
 10   6   9  1   
 11  10  11  1   
 12  10  12  ar  
 13  12  13  1   
 14  12  14  ar  
 15  14  15  1   
 16  15  16  3   
@<TRIPOS>SUBSTRUCTURE
  1 ****  14 GROUP 4 **** **** 0

# MOE 2022.02 (io_trps.svl 2020.11)

@<TRIPOS>MOLECULE
SEL152
12 12 1 0 0 
SMALL
USER_CHARGES


@<TRIPOS>ATOM
  1 H       -3.1650     4.0430     0.0110 H     1 <1>   0.1500 
  2 C       -2.6790     3.0710     0.0060 C.ar  1 <1>   0.1600 
  3 N       -1.3280     3.1000     0.0080 N.ar  1 <1>  -0.6200 
  4 C       -0.6830     1.9070     0.0030 C.ar  1 <1>   0.3830 
  5 C        0.7530     1.9670     0.0060 C.1   1 <1>   0.4840 
  6 N        1.9150     1.9690     0.0080 N.1   1 <1>  -0.5570 
  7 C       -1.3360     0.6850    -0.0040 C.ar  1 <1>  -0.1500 
  8 H       -0.7810    -0.2470    -0.0080 H     1 <1>   0.1500 
  9 C       -2.7260     0.6990    -0.0060 C.ar  1 <1>   0.1110 
 10 BR      -3.6800    -0.9320    -0.0160 Br    1 <1>  -0.1110 
 11 C       -3.4190     1.9030    -0.0010 C.ar  1 <1>  -0.1500 
 12 H       -4.5030     1.9400    -0.0020 H     1 <1>   0.1500 
@<TRIPOS>BOND
  1   1   2  1   
  2   2   3  ar  
  3   2  11  ar  
  4   3   4  ar  
  5   4   5  1   
  6   4   7  ar  
  7   5   6  3   
  8   7   8  1   
  9   7   9  ar  
 10   9  10  1   
 11   9  11  ar  
 12  11  12  1   
@<TRIPOS>SUBSTRUCTURE
  1 ****   4 GROUP 4 **** **** 0

# MOE 2022.02 (io_trps.svl 2020.11)

@<TRIPOS>MOLECULE
SEL153
18 18 1 0 0 
SMALL
USER_CHARGES


@<TRIPOS>ATOM
  1 H        5.0150    -0.6060     1.1000 H     1 <1>   0.3600 
  2 N        4.8740    -0.7040     0.0950 N.3   1 <1>  -0.9900 
  3 H        5.7990    -0.8580    -0.3040 H     1 <1>   0.3600 
  4 C        4.0450    -1.8810    -0.1640 C.3   1 <1>   0.2700 
  5 H        3.9870    -2.0520    -1.2450 H     1 <1>   0.0000 
  6 H        4.5330    -2.7700     0.2540 H     1 <1>   0.0000 
  7 C        2.6300    -1.7620     0.4150 C.3   1 <1>   0.2800 
  8 H        2.6840    -1.6570     1.5060 H     1 <1>   0.0000 
  9 O        1.8870    -2.9700     0.1520 O.3   1 <1>  -0.5600 
 10 C        0.5530    -2.6070    -0.2320 C.3   1 <1>   0.2800 
 11 H        0.4420    -2.8270    -1.2980 H     1 <1>   0.0000 
 12 H       -0.1680    -3.2110     0.3260 H     1 <1>   0.0000 
 13 C        0.4020    -1.1250     0.0390 C.3   1 <1>   0.0000 
 14 H       -0.3380    -0.6460    -0.6060 H     1 <1>   0.0000 
 15 H        0.1040    -0.9640     1.0820 H     1 <1>   0.0000 
 16 C        1.8080    -0.6250    -0.1740 C.3   1 <1>   0.0000 
 17 H        2.0010    -0.5170    -1.2490 H     1 <1>   0.0000 
 18 H        2.0020     0.3360     0.3090 H     1 <1>   0.0000 
@<TRIPOS>BOND
  1   1   2  1   
  2   2   3  1   
  3   2   4  1   
  4   4   5  1   
  5   4   6  1   
  6   4   7  1   
  7   7   8  1   
  8   7   9  1   
  9   7  16  1   
 10   9  10  1   
 11  10  11  1   
 12  10  12  1   
 13  10  13  1   
 14  13  14  1   
 15  13  15  1   
 16  13  16  1   
 17  16  17  1   
 18  16  18  1   
@<TRIPOS>SUBSTRUCTURE
  1 ****   7 GROUP 4 **** **** 0

# MOE 2022.02 (io_trps.svl 2020.11)

@<TRIPOS>MOLECULE
SEL154
23 23 1 0 0 
SMALL
USER_CHARGES


@<TRIPOS>ATOM
  1 H        1.4230     0.8240    -0.2180 H     1 <1>   0.3600 
  2 N        0.9980     1.7420    -0.3510 N.3   1 <1>  -0.9000 
  3 C        1.8530     2.7400     0.2790 C.3   1 <1>   0.2700 
  4 H        1.9040     2.6010     1.3640 H     1 <1>   0.0000 
  5 H        2.8680     2.6440    -0.1180 H     1 <1>   0.0000 
  6 H        1.5200     3.7580     0.0600 H     1 <1>   0.0000 
  7 C       -0.3660     1.7240     0.2000 C.3   1 <1>   0.2700 
  8 H       -0.3130     1.6670     1.2960 H     1 <1>   0.0000 
  9 C       -1.0740     0.4530    -0.3010 C.3   1 <1>   0.0000 
 10 H       -0.5370    -0.4400     0.0430 H     1 <1>   0.0000 
 11 H       -1.0670     0.4250    -1.3990 H     1 <1>   0.0000 
 12 C       -2.5190     0.3780     0.1890 C.3   1 <1>   0.0000 
 13 H       -3.0040    -0.5110    -0.2290 H     1 <1>   0.0000 
 14 H       -2.5290     0.2650     1.2800 H     1 <1>   0.0000 
 15 C       -3.3070     1.6230    -0.2010 C.3   1 <1>   0.0000 
 16 H       -4.3170     1.5680     0.2210 H     1 <1>   0.0000 
 17 H       -3.4180     1.6590    -1.2920 H     1 <1>   0.0000 
 18 C       -2.6170     2.8940     0.2820 C.3   1 <1>   0.0000 
 19 H       -3.1710     3.7700    -0.0730 H     1 <1>   0.0000 
 20 H       -2.6370     2.9260     1.3780 H     1 <1>   0.0000 
 21 C       -1.1690     2.9720    -0.2020 C.3   1 <1>   0.0000 
 22 H       -1.1610     3.0880    -1.2940 H     1 <1>   0.0000 
 23 H       -0.7170     3.8780     0.2170 H     1 <1>   0.0000 
@<TRIPOS>BOND
  1   1   2  1   
  2   2   3  1   
  3   2   7  1   
  4   3   4  1   
  5   3   5  1   
  6   3   6  1   
  7   7   8  1   
  8   7   9  1   
  9   7  21  1   
 10   9  10  1   
 11   9  11  1   
 12   9  12  1   
 13  12  13  1   
 14  12  14  1   
 15  12  15  1   
 16  15  16  1   
 17  15  17  1   
 18  15  18  1   
 19  18  19  1   
 20  18  20  1   
 21  18  21  1   
 22  21  22  1   
 23  21  23  1   
@<TRIPOS>SUBSTRUCTURE
  1 ****   7 GROUP 4 **** **** 0

# MOE 2022.02 (io_trps.svl 2020.11)

@<TRIPOS>MOLECULE
SEL155
21 22 1 0 0 
SMALL
USER_CHARGES


@<TRIPOS>ATOM
  1 H       -2.5190     1.2470    -0.3130 H     1 <1>   0.1500 
  2 C       -1.6090     1.8360    -0.2370 C.ar  1 <1>  -0.1500 
  3 C       -1.6770     3.2260    -0.2170 C.ar  1 <1>  -0.1500 
  4 H       -2.6400     3.7250    -0.2780 H     1 <1>   0.1500 
  5 C       -0.5070     3.9750    -0.1170 C.ar  1 <1>  -0.1500 
  6 H       -0.5670     5.0600    -0.1000 H     1 <1>   0.1500 
  7 C        0.7400     3.3350    -0.0450 C.ar  1 <1>  -0.1440 
  8 C        0.8150     1.9310    -0.0500 C.ar  1 <1>   0.1000 
  9 C       -0.3700     1.1960    -0.1510 C.ar  1 <1>  -0.1500 
 10 H       -0.3370     0.1100    -0.1580 H     1 <1>   0.1500 
 11 N        2.0300     1.2760     0.0560 N.pl3 1 <1>  -0.8690 
 12 H        2.0670     0.2700    -0.0380 H     1 <1>   0.4000 
 13 C        3.2470     2.0120     0.3260 C.3   1 <1>   0.3690 
 14 H        4.1080     1.4280    -0.0160 H     1 <1>   0.0000 
 15 H        3.3570     2.1480     1.4090 H     1 <1>   0.0000 
 16 C        3.2240     3.3640    -0.3730 C.3   1 <1>   0.0000 
 17 H        4.1370     3.9250    -0.1470 H     1 <1>   0.0000 
 18 H        3.1930     3.2160    -1.4600 H     1 <1>   0.0000 
 19 C        1.9990     4.1570     0.0730 C.3   1 <1>   0.1440 
 20 H        2.1150     4.4680     1.1190 H     1 <1>   0.0000 
 21 H        1.9180     5.0620    -0.5400 H     1 <1>   0.0000 
@<TRIPOS>BOND
  1   1   2  1   
  2   2   3  ar  
  3   2   9  ar  
  4   3   4  1   
  5   3   5  ar  
  6   5   6  1   
  7   5   7  ar  
  8   7   8  ar  
  9   7  19  1   
 10   8   9  ar  
 11   8  11  1   
 12   9  10  1   
 13  11  12  1   
 14  11  13  1   
 15  13  14  1   
 16  13  15  1   
 17  13  16  1   
 18  16  17  1   
 19  16  18  1   
 20  16  19  1   
 21  19  20  1   
 22  19  21  1   
@<TRIPOS>SUBSTRUCTURE
  1 ****   8 GROUP 4 **** **** 0

# MOE 2022.02 (io_trps.svl 2020.11)

@<TRIPOS>MOLECULE
SEL156
23 23 1 0 0 
SMALL
USER_CHARGES


@<TRIPOS>ATOM
  1 H        8.4030     0.6600     1.3200 H     1 <1>   0.1500 
  2 C        7.3440     0.5400     1.1100 C.2   1 <1>  -0.3000 
  3 H        6.8520    -0.3230     1.5480 H     1 <1>   0.1500 
  4 C        6.6730     1.4270     0.3550 C.2   1 <1>  -0.2760 
  5 C        7.3550     2.6220    -0.2500 C.3   1 <1>   0.1380 
  6 H        8.4280     2.6360    -0.0320 H     1 <1>   0.0000 
  7 H        6.9240     3.5500     0.1390 H     1 <1>   0.0000 
  8 H        7.2390     2.6130    -1.3390 H     1 <1>   0.0000 
  9 C        5.2010     1.2760     0.0490 C.3   1 <1>   0.4180 
 10 H        4.8070     0.3650     0.5150 H     1 <1>   0.0000 
 11 H        5.0750     1.2100    -1.0390 H     1 <1>   0.0000 
 12 O        4.5160     2.4170     0.5610 O.3   1 <1>  -0.3630 
 13 C        3.1650     2.4780     0.3550 C.ar  1 <1>   0.0820 
 14 C        2.3880     1.5220    -0.3020 C.ar  1 <1>  -0.1500 
 15 H        2.8190     0.6170    -0.7160 H     1 <1>   0.1500 
 16 C        1.0090     1.7130    -0.4410 C.ar  1 <1>  -0.1500 
 17 H        0.4080     0.9660    -0.9530 H     1 <1>   0.1500 
 18 C        0.4020     2.8580     0.0730 C.ar  1 <1>  -0.1500 
 19 H       -0.6690     3.0030    -0.0360 H     1 <1>   0.1500 
 20 C        1.1730     3.8140     0.7290 C.ar  1 <1>  -0.1500 
 21 H        0.7060     4.7080     1.1340 H     1 <1>   0.1500 
 22 C        2.5490     3.6230     0.8680 C.ar  1 <1>  -0.1500 
 23 H        3.1470     4.3710     1.3810 H     1 <1>   0.1500 
@<TRIPOS>BOND
  1   1   2  1   
  2   2   3  1   
  3   2   4  2   
  4   4   5  1   
  5   4   9  1   
  6   5   6  1   
  7   5   7  1   
  8   5   8  1   
  9   9  10  1   
 10   9  11  1   
 11   9  12  1   
 12  12  13  1   
 13  13  14  ar  
 14  13  22  ar  
 15  14  15  1   
 16  14  16  ar  
 17  16  17  1   
 18  16  18  ar  
 19  18  19  1   
 20  18  20  ar  
 21  20  21  1   
 22  20  22  ar  
 23  22  23  1   
@<TRIPOS>SUBSTRUCTURE
  1 ****  13 GROUP 4 **** **** 0

# MOE 2022.02 (io_trps.svl 2020.11)

@<TRIPOS>MOLECULE
SEL157
29 31 1 0 0 
SMALL
USER_CHARGES


@<TRIPOS>ATOM
  1 H       10.8980    -3.5840    -0.0030 H     1 <1>   0.5000 
  2 O        9.9350    -3.4040    -0.0040 O.3   1 <1>  -0.6500 
  3 C        9.3770    -4.6270    -0.0040 C.2   1 <1>   0.6340 
  4 O       10.0600    -5.6340    -0.0030 O.2   1 <1>  -0.5700 
  5 C        7.8950    -4.5830    -0.0050 C.ar  1 <1>   0.0860 
  6 C        7.1910    -5.7860    -0.0010 C.ar  1 <1>  -0.1500 
  7 H        7.7240    -6.7350     0.0020 H     1 <1>   0.1500 
  8 C        5.7880    -5.7870    -0.0010 C.ar  1 <1>  -0.1500 
  9 H        5.3100    -6.7630     0.0020 H     1 <1>   0.1500 
 10 C        5.0460    -4.5940    -0.0050 C.ar  1 <1>   0.1170 
 11 N        3.6140    -4.5980    -0.0040 N.am  1 <1>  -0.2370 
 12 C        2.8150    -3.4690    -0.0150 C.2   1 <1>   0.5440 
 13 O        3.0790    -2.2800    -0.0270 O.2   1 <1>  -0.5700 
 14 C        1.4270    -3.9180    -0.0100 C.ar  1 <1>   0.0860 
 15 C        0.2510    -3.1910    -0.0160 C.ar  1 <1>  -0.1500 
 16 H        0.2610    -2.1060    -0.0270 H     1 <1>   0.1500 
 17 C       -0.9480    -3.9100    -0.0090 C.ar  1 <1>  -0.1500 
 18 H       -1.8980    -3.3770    -0.0140 H     1 <1>   0.1500 
 19 C       -0.9430    -5.3190     0.0050 C.ar  1 <1>  -0.1500 
 20 H       -1.8880    -5.8590     0.0110 H     1 <1>   0.1500 
 21 C        0.2620    -6.0290     0.0110 C.ar  1 <1>  -0.1500 
 22 H        0.2800    -7.1140     0.0220 H     1 <1>   0.1500 
 23 C        1.4320    -5.2930     0.0040 C.ar  1 <1>   0.0860 
 24 C        2.8230    -5.7320     0.0070 C.2   1 <1>   0.5440 
 25 O        3.0950    -6.9200     0.0200 O.2   1 <1>  -0.5700 
 26 C        5.7800    -3.3950    -0.0090 C.ar  1 <1>  -0.1500 
 27 H        5.2950    -2.4230    -0.0110 H     1 <1>   0.1500 
 28 C        7.1840    -3.3840    -0.0090 C.ar  1 <1>  -0.1500 
 29 H        7.7030    -2.4280    -0.0110 H     1 <1>   0.1500 
@<TRIPOS>BOND
  1   1   2  1   
  2   2   3  1   
  3   3   4  2   
  4   3   5  1   
  5   5   6  ar  
  6   5  28  ar  
  7   6   7  1   
  8   6   8  ar  
  9   8   9  1   
 10   8  10  ar  
 11  10  11  1   
 12  10  26  ar  
 13  11  12  am  
 14  11  24  am  
 15  12  13  2   
 16  12  14  1   
 17  14  15  ar  
 18  14  23  ar  
 19  15  16  1   
 20  15  17  ar  
 21  17  18  1   
 22  17  19  ar  
 23  19  20  1   
 24  19  21  ar  
 25  21  22  1   
 26  21  23  ar  
 27  23  24  1   
 28  24  25  2   
 29  26  27  1   
 30  26  28  ar  
 31  28  29  1   
@<TRIPOS>SUBSTRUCTURE
  1 ****  11 GROUP 4 **** **** 0

# MOE 2022.02 (io_trps.svl 2020.11)

@<TRIPOS>MOLECULE
SEL158
14 14 1 0 0 
SMALL
USER_CHARGES


@<TRIPOS>ATOM
  1 H       -0.9070    -0.7300    -0.9470 H     1 <1>   0.1500 
  2 C       -0.6070     0.0760    -0.2940 C.2   1 <1>  -0.1500 
  3 C       -1.4140     1.0730     0.2990 C.2   1 <1>   0.1080 
  4 C       -2.8760     1.2670     0.1790 C.3   1 <1>   0.1810 
  5 H       -3.0990     2.2490    -0.2510 H     1 <1>   0.0000 
  6 H       -3.3240     0.5060    -0.4670 H     1 <1>   0.0000 
  7 H       -3.3550     1.2020     1.1610 H     1 <1>   0.0000 
  8 N       -0.6850     1.9060     1.0510 N.2   1 <1>  -0.4100 
  9 O        0.6200     1.4560     0.9520 O.3   1 <1>  -0.0190 
 10 C        0.6610     0.3610     0.1470 C.2   1 <1>  -0.0400 
 11 C        1.9860    -0.2450    -0.0630 C.3   1 <1>   0.1800 
 12 H        1.9150    -1.1360    -0.6940 H     1 <1>   0.0000 
 13 H        2.4300    -0.5400     0.8930 H     1 <1>   0.0000 
 14 H        2.6600     0.4660    -0.5520 H     1 <1>   0.0000 
@<TRIPOS>BOND
  1   1   2  1   
  2   2   3  1   
  3   2  10  2   
  4   3   4  1   
  5   3   8  2   
  6   4   5  1   
  7   4   6  1   
  8   4   7  1   
  9   8   9  1   
 10   9  10  1   
 11  10  11  1   
 12  11  12  1   
 13  11  13  1   
 14  11  14  1   
@<TRIPOS>SUBSTRUCTURE
  1 ****   2 GROUP 4 **** **** 0

# MOE 2022.02 (io_trps.svl 2020.11)

@<TRIPOS>MOLECULE
SEL159
18 19 1 0 0 
SMALL
USER_CHARGES


@<TRIPOS>ATOM
  1 H        7.4800     3.6140     0.0200 H     1 <1>   0.5000 
  2 O        6.5160     3.7920     0.0180 O.3   1 <1>  -0.6500 
  3 C        5.9610     2.5670     0.0110 C.2   1 <1>   0.6340 
  4 O        6.6470     1.5620     0.0080 O.2   1 <1>  -0.5700 
  5 C        4.4780     2.6050     0.0070 C.ar  1 <1>   0.0860 
  6 C        3.7700     3.8150     0.0080 C.ar  1 <1>  -0.1500 
  7 H        4.3040     4.7630     0.0110 H     1 <1>   0.1500 
  8 C        2.3690     3.8380     0.0050 C.ar  1 <1>  -0.1500 
  9 H        1.8240     4.7760     0.0060 H     1 <1>   0.1500 
 10 C        1.7150     2.6020     0.0020 C.ar  1 <1>  -0.1520 
 11 C        2.3880     1.3860     0.0000 C.ar  1 <1>   0.0000 
 12 C        1.3640     0.4140    -0.0040 C.2   1 <1>   0.1390 
 13 H        1.4620    -0.6630    -0.0060 H     1 <1>   0.1500 
 14 N        0.1420     0.9530    -0.0050 N.2   1 <1>  -0.7070 
 15 N        0.3830     2.2760    -0.0020 N.pl3 1 <1>   0.3000 
 16 H       -0.4090     2.9080    -0.0020 H     1 <1>   0.2700 
 17 C        3.7940     1.3770     0.0030 C.ar  1 <1>  -0.1500 
 18 H        4.3390     0.4370     0.0020 H     1 <1>   0.1500 
@<TRIPOS>BOND
  1   1   2  1   
  2   2   3  1   
  3   3   4  2   
  4   3   5  1   
  5   5   6  ar  
  6   5  17  ar  
  7   6   7  1   
  8   6   8  ar  
  9   8   9  1   
 10   8  10  ar  
 11  10  11  ar  
 12  10  15  1   
 13  11  12  1   
 14  11  17  ar  
 15  12  13  1   
 16  12  14  2   
 17  14  15  1   
 18  15  16  1   
 19  17  18  1   
@<TRIPOS>SUBSTRUCTURE
  1 ****  17 GROUP 4 **** **** 0

# MOE 2022.02 (io_trps.svl 2020.11)

@<TRIPOS>MOLECULE
SEL160
20 21 1 0 0 
SMALL
USER_CHARGES


@<TRIPOS>ATOM
  1 H        0.5950    -3.3790    -0.9680 H     1 <1>   0.1500 
  2 C       -0.0010    -2.6580    -0.4150 C.ar  1 <1>  -0.1500 
  3 C       -1.3410    -2.4550    -0.7610 C.ar  1 <1>  -0.1500 
  4 H       -1.7620    -3.0260    -1.5870 H     1 <1>   0.1500 
  5 C       -2.1460    -1.5300    -0.0690 C.ar  1 <1>  -0.0320 
  6 C       -3.6100    -1.2970    -0.4600 C.3   1 <1>   0.1370 
  7 C       -3.9240    -0.2850    -1.4580 C.1   1 <1>   0.4520 
  8 N       -4.1900     0.5190    -2.2510 N.1   1 <1>  -0.5570 
  9 C       -4.5330    -2.5170    -0.4410 C.3   1 <1>  -0.2000 
 10 H       -5.3300    -2.5800    -1.1760 H     1 <1>   0.1000 
 11 H       -4.1250    -3.4840    -0.1670 H     1 <1>   0.1000 
 12 C       -4.6580    -1.4900     0.6380 C.3   1 <1>  -0.2000 
 13 H       -4.3330    -1.7680     1.6350 H     1 <1>   0.1000 
 14 H       -5.5390    -0.8560     0.6350 H     1 <1>   0.1000 
 15 C       -1.5450    -0.8060     0.9780 C.ar  1 <1>  -0.1500 
 16 H       -2.1270    -0.0700     1.5300 H     1 <1>   0.1500 
 17 C       -0.2050    -1.0050     1.3290 C.ar  1 <1>  -0.1500 
 18 H        0.2300    -0.4320     2.1430 H     1 <1>   0.1500 
 19 C        0.5610    -1.9320     0.6300 C.ar  1 <1>   0.1770 
 20 CL       2.2080    -2.1780     1.0570 Cl    1 <1>  -0.1770 
@<TRIPOS>BOND
  1   1   2  1   
  2   2   3  ar  
  3   2  19  ar  
  4   3   4  1   
  5   3   5  ar  
  6   5   6  1   
  7   5  15  ar  
  8   6   7  1   
  9   6   9  1   
 10   6  12  1   
 11   7   8  3   
 12   9  10  1   
 13   9  11  1   
 14   9  12  1   
 15  12  13  1   
 16  12  14  1   
 17  15  16  1   
 18  15  17  ar  
 19  17  18  1   
 20  17  19  ar  
 21  19  20  1   
@<TRIPOS>SUBSTRUCTURE
  1 ****   5 GROUP 4 **** **** 0

# MOE 2022.02 (io_trps.svl 2020.11)

@<TRIPOS>MOLECULE
SEL161
23 23 1 0 0 
SMALL
USER_CHARGES


@<TRIPOS>ATOM
  1 H       -7.4890     1.1730    -0.8790 H     1 <1>   0.1500 
  2 C       -6.6430     1.8070    -0.6290 C.ar  1 <1>  -0.1500 
  3 C       -5.8690     1.5270     0.4960 C.ar  1 <1>  -0.1500 
  4 H       -6.1110     0.6720     1.1220 H     1 <1>   0.1500 
  5 C       -4.7840     2.3440     0.8190 C.ar  1 <1>  -0.1500 
  6 H       -4.1880     2.1110     1.6990 H     1 <1>   0.1500 
  7 C       -4.4690     3.4540     0.0240 C.ar  1 <1>  -0.1440 
  8 C       -3.2820     4.3170     0.3540 C.3   1 <1>   0.4440 
  9 H       -3.4330     5.3430    -0.0010 H     1 <1>   0.0000 
 10 H       -3.1330     4.3740     1.4390 H     1 <1>   0.0000 
 11 N       -2.0790     3.7860    -0.2480 N.am  1 <1>  -0.7300 
 12 H       -2.1510     2.9130    -0.7560 H     1 <1>   0.3700 
 13 C       -0.8780     4.4470    -0.1230 C.2   1 <1>   0.5690 
 14 O       -0.7600     5.5030     0.4920 O.2   1 <1>  -0.5700 
 15 C        0.2940     3.7750    -0.7970 C.3   1 <1>   0.2610 
 16 H        0.8860     4.5470    -1.2980 H     1 <1>   0.0000 
 17 H       -0.0600     3.0870    -1.5730 H     1 <1>   0.0000 
 18 C        1.0990     3.0610     0.1930 C.1   1 <1>   0.3570 
 19 N        1.7440     2.4600     0.9480 N.1   1 <1>  -0.5570 
 20 C       -5.2470     3.7200    -1.1120 C.ar  1 <1>  -0.1500 
 21 H       -5.0150     4.5690    -1.7520 H     1 <1>   0.1500 
 22 C       -6.3310     2.9020    -1.4340 C.ar  1 <1>  -0.1500 
 23 H       -6.9350     3.1190    -2.3110 H     1 <1>   0.1500 
@<TRIPOS>BOND
  1   1   2  1   
  2   2   3  ar  
  3   2  22  ar  
  4   3   4  1   
  5   3   5  ar  
  6   5   6  1   
  7   5   7  ar  
  8   7   8  1   
  9   7  20  ar  
 10   8   9  1   
 11   8  10  1   
 12   8  11  1   
 13  11  12  1   
 14  11  13  am  
 15  13  14  2   
 16  13  15  1   
 17  15  16  1   
 18  15  17  1   
 19  15  18  1   
 20  18  19  3   
 21  20  21  1   
 22  20  22  ar  
 23  22  23  1   
@<TRIPOS>SUBSTRUCTURE
  1 ****  11 GROUP 4 **** **** 0

# MOE 2022.02 (io_trps.svl 2020.11)

@<TRIPOS>MOLECULE
SEL162
20 21 1 0 0 
SMALL
USER_CHARGES


@<TRIPOS>ATOM
  1 H        1.6580     2.3870    -0.8960 H     1 <1>   0.1500 
  2 C        1.7590     1.3310    -0.6770 C.ar  1 <1>  -0.1500 
  3 C        3.0060     0.6990    -0.7150 C.ar  1 <1>  -0.1500 
  4 H        3.8920     1.2810    -0.9620 H     1 <1>   0.1500 
  5 C        3.1370    -0.6800    -0.4240 C.ar  1 <1>  -0.1440 
  6 C        4.4930    -1.3380    -0.4720 C.3   1 <1>   0.4140 
  7 H        4.9410    -1.1650    -1.4580 H     1 <1>   0.0000 
  8 H        4.3950    -2.4230    -0.3540 H     1 <1>   0.0000 
  9 N        5.3710    -0.8180     0.5680 N.3   1 <1>  -0.9900 
 10 H        6.2340    -1.3580     0.5770 H     1 <1>   0.3600 
 11 H        4.9300    -0.9650     1.4750 H     1 <1>   0.3600 
 12 C        1.9950    -1.4260    -0.0880 C.ar  1 <1>  -0.1500 
 13 H        2.0530    -2.4830     0.1450 H     1 <1>   0.1500 
 14 C        0.7790    -0.7750    -0.0590 C.ar  1 <1>   0.0820 
 15 C        0.6640     0.5650    -0.3450 C.ar  1 <1>   0.0820 
 16 O       -0.6190     1.0070    -0.2580 O.3   1 <1>  -0.3630 
 17 C       -1.2990    -0.2090     0.1190 C.3   1 <1>   0.5600 
 18 H       -1.8020    -0.0470     1.0790 H     1 <1>   0.0000 
 19 H       -2.0560    -0.4360    -0.6400 H     1 <1>   0.0000 
 20 O       -0.4180    -1.3450     0.2460 O.3   1 <1>  -0.3630 
@<TRIPOS>BOND
  1   1   2  1   
  2   2   3  ar  
  3   2  15  ar  
  4   3   4  1   
  5   3   5  ar  
  6   5   6  1   
  7   5  12  ar  
  8   6   7  1   
  9   6   8  1   
 10   6   9  1   
 11   9  10  1   
 12   9  11  1   
 13  12  13  1   
 14  12  14  ar  
 15  14  15  ar  
 16  14  20  1   
 17  15  16  1   
 18  16  17  1   
 19  17  18  1   
 20  17  19  1   
 21  17  20  1   
@<TRIPOS>SUBSTRUCTURE
  1 ****  14 GROUP 4 **** **** 0

# MOE 2022.02 (io_trps.svl 2020.11)

@<TRIPOS>MOLECULE
SEL163
21 21 1 0 0 
SMALL
USER_CHARGES


@<TRIPOS>ATOM
  1 H       -0.9160     4.5540     0.3580 H     1 <1>   0.3600 
  2 N       -0.9210     3.5710     0.6300 N.3   1 <1>  -0.9000 
  3 C       -2.1290     2.9240     0.0880 C.3   1 <1>   0.2700 
  4 H       -3.0110     3.3720     0.5600 H     1 <1>   0.0000 
  5 H       -2.1870     3.1340    -0.9880 H     1 <1>   0.0000 
  6 C       -2.1200     1.4010     0.3290 C.3   1 <1>   0.2800 
  7 H       -2.1240     1.1860     1.4060 H     1 <1>   0.0000 
  8 C       -3.3370     0.7420    -0.3050 C.3   1 <1>   0.0000 
  9 H       -4.2670     1.1430     0.1090 H     1 <1>   0.0000 
 10 H       -3.3420     0.8890    -1.3900 H     1 <1>   0.0000 
 11 H       -3.3170    -0.3400    -0.1350 H     1 <1>   0.0000 
 12 O       -0.9480     0.8040    -0.2530 O.3   1 <1>  -0.5600 
 13 C        0.2410     1.3840     0.3110 C.3   1 <1>   0.2800 
 14 H        0.2590     1.1690     1.3870 H     1 <1>   0.0000 
 15 C        1.4390     0.7070    -0.3420 C.3   1 <1>   0.0000 
 16 H        1.4060    -0.3740    -0.1680 H     1 <1>   0.0000 
 17 H        1.4280     0.8510    -1.4280 H     1 <1>   0.0000 
 18 H        2.3810     1.0960     0.0550 H     1 <1>   0.0000 
 19 C        0.2690     2.9070     0.0690 C.3   1 <1>   0.2700 
 20 H        0.3130     3.1160    -1.0070 H     1 <1>   0.0000 
 21 H        1.1640     3.3410     0.5270 H     1 <1>   0.0000 
@<TRIPOS>BOND
  1   1   2  1   
  2   2   3  1   
  3   2  19  1   
  4   3   4  1   
  5   3   5  1   
  6   3   6  1   
  7   6   7  1   
  8   6   8  1   
  9   6  12  1   
 10   8   9  1   
 11   8  10  1   
 12   8  11  1   
 13  12  13  1   
 14  13  14  1   
 15  13  15  1   
 16  13  19  1   
 17  15  16  1   
 18  15  17  1   
 19  15  18  1   
 20  19  20  1   
 21  19  21  1   
@<TRIPOS>SUBSTRUCTURE
  1 ****  12 GROUP 4 **** **** 0

# MOE 2022.02 (io_trps.svl 2020.11)

@<TRIPOS>MOLECULE
SEL164
21 22 1 0 0 
SMALL
USER_CHARGES


@<TRIPOS>ATOM
  1 H        8.1300    -3.3600    -0.0160 H     1 <1>   0.5000 
  2 O        7.3900    -2.7160    -0.0090 O.3   1 <1>  -0.6500 
  3 C        6.2900    -3.4900    -0.0170 C.2   1 <1>   0.6340 
  4 O        6.3720    -4.7040    -0.0310 O.2   1 <1>  -0.5700 
  5 C        5.0330    -2.7030    -0.0080 C.ar  1 <1>   0.0860 
  6 C        5.0340    -1.3050     0.0080 C.ar  1 <1>  -0.1500 
  7 H        5.9680    -0.7480     0.0150 H     1 <1>   0.1500 
  8 C        3.8240    -0.6060     0.0160 C.ar  1 <1>  -0.1500 
  9 H        3.8460     0.4820     0.0290 H     1 <1>   0.1500 
 10 C        2.5990    -1.2910     0.0080 C.ar  1 <1>   0.0000 
 11 C        1.3760    -0.6020     0.0160 C.ar  1 <1>  -0.1500 
 12 H        1.3560     0.4860     0.0290 H     1 <1>   0.1500 
 13 C        0.1650    -1.2970     0.0080 C.ar  1 <1>  -0.1500 
 14 H       -0.7740    -0.7510     0.0150 H     1 <1>   0.1500 
 15 C        0.1620    -2.6890    -0.0090 C.ar  1 <1>  -0.1500 
 16 H       -0.7800    -3.2310    -0.0150 H     1 <1>   0.1500 
 17 C        1.3690    -3.3890    -0.0170 C.ar  1 <1>  -0.1500 
 18 H        1.3450    -4.4770    -0.0300 H     1 <1>   0.1500 
 19 C        2.5950    -2.7050    -0.0090 C.ar  1 <1>   0.0000 
 20 C        3.8170    -3.3970    -0.0170 C.ar  1 <1>  -0.1500 
 21 H        3.8250    -4.4860    -0.0300 H     1 <1>   0.1500 
@<TRIPOS>BOND
  1   1   2  1   
  2   2   3  1   
  3   3   4  2   
  4   3   5  1   
  5   5   6  ar  
  6   5  20  ar  
  7   6   7  1   
  8   6   8  ar  
  9   8   9  1   
 10   8  10  ar  
 11  10  11  ar  
 12  10  19  ar  
 13  11  12  1   
 14  11  13  ar  
 15  13  14  1   
 16  13  15  ar  
 17  15  16  1   
 18  15  17  ar  
 19  17  18  1   
 20  17  19  ar  
 21  19  20  ar  
 22  20  21  1   
@<TRIPOS>SUBSTRUCTURE
  1 ****  19 GROUP 4 **** **** 0

# MOE 2022.02 (io_trps.svl 2020.11)

@<TRIPOS>MOLECULE
SEL165
19 19 1 0 0 
SMALL
USER_CHARGES


@<TRIPOS>ATOM
  1 H        0.9210     3.1560    -0.0590 H     1 <1>   0.1500 
  2 C       -0.0050     2.5960    -0.0330 C.ar  1 <1>  -0.1500 
  3 C       -0.0370     1.2130    -0.1410 C.ar  1 <1>   0.3920 
  4 O        1.0650     0.4190    -0.2820 O.3   1 <1>  -0.3630 
  5 C        2.2990     0.9700     0.1520 C.3   1 <1>   0.2800 
  6 H        3.0370     0.1630     0.1730 H     1 <1>   0.0000 
  7 H        2.6570     1.7270    -0.5530 H     1 <1>   0.0000 
  8 H        2.2260     1.3800     1.1660 H     1 <1>   0.0000 
  9 N       -1.1910     0.5140    -0.1430 N.ar  1 <1>  -0.6200 
 10 C       -2.3540     1.1860    -0.0160 C.ar  1 <1>   0.3920 
 11 O       -3.4420     0.3610    -0.0340 O.3   1 <1>  -0.3630 
 12 C       -4.6860     0.9270     0.3450 C.3   1 <1>   0.2800 
 13 H       -4.6340     1.3800     1.3400 H     1 <1>   0.0000 
 14 H       -5.0320     1.6500    -0.4010 H     1 <1>   0.0000 
 15 H       -5.4230     0.1180     0.3870 H     1 <1>   0.0000 
 16 C       -2.4040     2.5670     0.1020 C.ar  1 <1>  -0.1500 
 17 H       -3.3370     3.1090     0.1880 H     1 <1>   0.1500 
 18 C       -1.2090     3.2800     0.0910 C.ar  1 <1>  -0.1500 
 19 H       -1.2170     4.3640     0.1720 H     1 <1>   0.1500 
@<TRIPOS>BOND
  1   1   2  1   
  2   2   3  ar  
  3   2  18  ar  
  4   3   4  1   
  5   3   9  ar  
  6   4   5  1   
  7   5   6  1   
  8   5   7  1   
  9   5   8  1   
 10   9  10  ar  
 11  10  11  1   
 12  10  16  ar  
 13  11  12  1   
 14  12  13  1   
 15  12  14  1   
 16  12  15  1   
 17  16  17  1   
 18  16  18  ar  
 19  18  19  1   
@<TRIPOS>SUBSTRUCTURE
  1 ****   9 GROUP 4 **** **** 0

# MOE 2022.02 (io_trps.svl 2020.11)

@<TRIPOS>MOLECULE
SEL166
13 13 1 0 0 
SMALL
USER_CHARGES


@<TRIPOS>ATOM
  1 H       -4.4490     3.5890    -0.8330 H     1 <1>   0.1500 
  2 C       -3.8120     2.7780    -0.5070 C.2   1 <1>  -0.1100 
  3 S       -2.2130     2.6510    -1.0980 S.3   1 <1>  -0.0800 
  4 C       -1.9150     1.2370    -0.1740 C.2   1 <1>  -0.1400 
  5 C       -0.5800     0.5580    -0.2430 C.3   1 <1>   0.3800 
  6 H       -0.1030     0.7350    -1.2140 H     1 <1>   0.0000 
  7 H       -0.7220    -0.5260    -0.1620 H     1 <1>   0.0000 
  8 C        0.3010     1.0210     0.8390 C.1   1 <1>   0.3570 
  9 N        1.0130     1.3630     1.6910 N.1   1 <1>  -0.5570 
 10 C       -3.0260     0.8730     0.5640 C.2   1 <1>  -0.1500 
 11 H       -3.0560     0.0090     1.2180 H     1 <1>   0.1500 
 12 C       -4.1200     1.7650     0.3730 C.2   1 <1>  -0.1500 
 13 H       -5.0840     1.6710     0.8570 H     1 <1>   0.1500 
@<TRIPOS>BOND
  1   1   2  1   
  2   2   3  1   
  3   2  12  2   
  4   3   4  1   
  5   4   5  1   
  6   4  10  2   
  7   5   6  1   
  8   5   7  1   
  9   5   8  1   
 10   8   9  3   
 11  10  11  1   
 12  10  12  1   
 13  12  13  1   
@<TRIPOS>SUBSTRUCTURE
  1 ****   4 GROUP 4 **** **** 0

# MOE 2022.02 (io_trps.svl 2020.11)

@<TRIPOS>MOLECULE
SEL167
14 14 1 0 0 
SMALL
USER_CHARGES


@<TRIPOS>ATOM
  1 H        0.9770     3.1380     0.0030 H     1 <1>   0.1500 
  2 C        0.3760     2.2350     0.0010 C.2   1 <1>  -0.1500 
  3 C        1.0700     0.9620     0.0010 C.2   1 <1>   0.1100 
  4 BR       2.9370     0.9420     0.0030 Br    1 <1>  -0.1100 
  5 C        0.3540    -0.1720    -0.0010 C.2   1 <1>  -0.0410 
  6 H        0.8100    -1.1570    -0.0010 H     1 <1>   0.1500 
  7 N       -1.0180    -0.1380    -0.0030 N.am  1 <1>  -0.5390 
  8 H       -1.5530    -0.9980    -0.0040 H     1 <1>   0.3700 
  9 C       -1.7550     1.0220    -0.0030 C.2   1 <1>   0.6160 
 10 O       -2.9840     1.0170    -0.0050 O.2   1 <1>  -0.5700 
 11 C       -0.9650     2.3230    -0.0010 C.2   1 <1>   0.1140 
 12 N       -1.6790     3.4910     0.0000 N.pl3 1 <1>  -0.9000 
 13 H       -1.2260     4.3930     0.0020 H     1 <1>   0.4000 
 14 H       -2.6940     3.4120    -0.0010 H     1 <1>   0.4000 
@<TRIPOS>BOND
  1   1   2  1   
  2   2   3  1   
  3   2  11  2   
  4   3   4  1   
  5   3   5  2   
  6   5   6  1   
  7   5   7  1   
  8   7   8  1   
  9   7   9  am  
 10   9  10  2   
 11   9  11  1   
 12  11  12  1   
 13  12  13  1   
 14  12  14  1   
@<TRIPOS>SUBSTRUCTURE
  1 ****  11 GROUP 4 **** **** 0

# MOE 2022.02 (io_trps.svl 2020.11)

@<TRIPOS>MOLECULE
SEL168
15 15 1 0 0 
SMALL
USER_CHARGES


@<TRIPOS>ATOM
  1 H       -2.6780     2.7520    -0.5370 H     1 <1>   0.1500 
  2 C       -1.7120     2.3700    -0.2350 C.2   1 <1>   0.0770 
  3 N       -1.5920     1.4700     0.7930 N.2   1 <1>  -0.5650 
  4 C       -0.3050     1.2250     0.8890 C.2   1 <1>   0.0370 
  5 H        0.1560     0.5520     1.6010 H     1 <1>   0.1500 
  6 N        0.4070     1.9340    -0.0340 N.pl3 1 <1>   0.0480 
  7 C        1.8440     1.9010    -0.2080 C.3   1 <1>   0.2560 
  8 H        2.1890     0.8940     0.0520 H     1 <1>   0.0000 
  9 H        2.0560     2.0620    -1.2710 H     1 <1>   0.0000 
 10 C        2.5510     2.9430     0.6400 C.3   1 <1>   0.0000 
 11 H        3.6330     2.8870     0.4880 H     1 <1>   0.0000 
 12 H        2.2210     3.9540     0.3800 H     1 <1>   0.0000 
 13 H        2.3470     2.7900     1.7060 H     1 <1>   0.0000 
 14 C       -0.4790     2.6730    -0.7660 C.2   1 <1>  -0.3020 
 15 H       -0.1770     3.3280    -1.5700 H     1 <1>   0.1500 
@<TRIPOS>BOND
  1   1   2  1   
  2   2   3  1   
  3   2  14  2   
  4   3   4  2   
  5   4   5  1   
  6   4   6  1   
  7   6   7  1   
  8   6  14  1   
  9   7   8  1   
 10   7   9  1   
 11   7  10  1   
 12  10  11  1   
 13  10  12  1   
 14  10  13  1   
 15  14  15  1   
@<TRIPOS>SUBSTRUCTURE
  1 ****   6 GROUP 4 **** **** 0

# MOE 2022.02 (io_trps.svl 2020.11)

@<TRIPOS>MOLECULE
SEL169
19 19 1 0 0 
SMALL
USER_CHARGES


@<TRIPOS>ATOM
  1 H       -3.1510     3.3160     0.0990 H     1 <1>   0.1500 
  2 C       -2.6330     2.3680    -0.0260 C.2   1 <1>  -0.1500 
  3 C       -1.1810     2.3850    -0.1590 C.2   1 <1>  -0.1380 
  4 C       -0.5590     3.7550    -0.1080 C.3   1 <1>   0.1380 
  5 H        0.5300     3.7380    -0.2110 H     1 <1>   0.0000 
  6 H       -0.7870     4.2420     0.8460 H     1 <1>   0.0000 
  7 H       -0.9500     4.3820    -0.9170 H     1 <1>   0.0000 
  8 C       -0.5030     1.2260    -0.3130 C.2   1 <1>   0.0790 
  9 C        0.9110     1.1610    -0.4470 C.1   1 <1>   0.4920 
 10 N        2.0680     1.1650    -0.5520 N.1   1 <1>  -0.5570 
 11 C       -1.2650    -0.0600    -0.3450 C.2   1 <1>   0.6160 
 12 O       -0.7180    -1.1500    -0.4810 O.2   1 <1>  -0.5700 
 13 N       -2.6300     0.0350    -0.2120 N.am  1 <1>  -0.5390 
 14 H       -3.1310    -0.8460    -0.2360 H     1 <1>   0.3700 
 15 C       -3.3170     1.2140    -0.0540 C.2   1 <1>  -0.0290 
 16 C       -4.8050     1.1250     0.0800 C.3   1 <1>   0.1380 
 17 H       -5.2640     2.1110     0.2070 H     1 <1>   0.0000 
 18 H       -5.2430     0.6660    -0.8130 H     1 <1>   0.0000 
 19 H       -5.0750     0.5170     0.9500 H     1 <1>   0.0000 
@<TRIPOS>BOND
  1   1   2  1   
  2   2   3  1   
  3   2  15  2   
  4   3   4  1   
  5   3   8  2   
  6   4   5  1   
  7   4   6  1   
  8   4   7  1   
  9   8   9  1   
 10   8  11  1   
 11   9  10  3   
 12  11  12  2   
 13  11  13  am  
 14  13  14  1   
 15  13  15  1   
 16  15  16  1   
 17  16  17  1   
 18  16  18  1   
 19  16  19  1   
@<TRIPOS>SUBSTRUCTURE
  1 ****   8 GROUP 4 **** **** 0

# MOE 2022.02 (io_trps.svl 2020.11)

@<TRIPOS>MOLECULE
SEL170
21 22 1 0 0 
SMALL
USER_CHARGES


@<TRIPOS>ATOM
  1 H        0.5930    -1.9260    -0.0700 H     1 <1>   0.1500 
  2 C       -0.3480    -1.3830    -0.0510 C.ar  1 <1>  -0.1500 
  3 C       -0.3370     0.0080    -0.0910 C.ar  1 <1>   0.1900 
  4 F        0.8350     0.6540    -0.1510 F     1 <1>  -0.1900 
  5 C       -1.5180     0.7360    -0.0690 C.ar  1 <1>  -0.1500 
  6 H       -1.4890     1.8210    -0.1000 H     1 <1>   0.1500 
  7 C       -2.7300     0.0460    -0.0060 C.ar  1 <1>   0.0860 
  8 C       -4.0130     0.7870     0.0190 C.2   1 <1>   0.4690 
  9 O       -4.0520     2.0120    -0.0130 O.2   1 <1>  -0.5700 
 10 C       -5.2650    -0.0050     0.0860 C.2   1 <1>  -0.1360 
 11 H       -6.1920     0.5530     0.1030 H     1 <1>   0.1500 
 12 C       -5.1990    -1.3470     0.1210 C.2   1 <1>  -0.0380 
 13 C       -6.4500    -2.1780     0.1870 C.3   1 <1>   0.1380 
 14 H       -7.3550    -1.5620     0.2030 H     1 <1>   0.0000 
 15 H       -6.5110    -2.8410    -0.6820 H     1 <1>   0.0000 
 16 H       -6.4490    -2.7930     1.0930 H     1 <1>   0.0000 
 17 N       -3.9990    -2.0250     0.0980 N.pl3 1 <1>  -0.6000 
 18 H       -4.0120    -3.0370     0.1270 H     1 <1>   0.4000 
 19 C       -2.7680    -1.3590     0.0350 C.ar  1 <1>   0.1000 
 20 C       -1.5640    -2.0690     0.0120 C.ar  1 <1>  -0.1500 
 21 H       -1.5610    -3.1550     0.0420 H     1 <1>   0.1500 
@<TRIPOS>BOND
  1   1   2  1   
  2   2   3  ar  
  3   2  20  ar  
  4   3   4  1   
  5   3   5  ar  
  6   5   6  1   
  7   5   7  ar  
  8   7   8  1   
  9   7  19  ar  
 10   8   9  2   
 11   8  10  1   
 12  10  11  1   
 13  10  12  2   
 14  12  13  1   
 15  12  17  1   
 16  13  14  1   
 17  13  15  1   
 18  13  16  1   
 19  17  18  1   
 20  17  19  1   
 21  19  20  ar  
 22  20  21  1   
@<TRIPOS>SUBSTRUCTURE
  1 ****   7 GROUP 4 **** **** 0

# MOE 2022.02 (io_trps.svl 2020.11)

@<TRIPOS>MOLECULE
SEL171
9 9 1 0 0 
SMALL
USER_CHARGES


@<TRIPOS>ATOM
  1 H        0.0930     3.3260     0.0050 H     1 <1>   0.1500 
  2 C       -0.1380     2.2690     0.0040 C.2   1 <1>   0.1390 
  3 N       -1.4200     1.8840     0.0130 N.2   1 <1>  -0.7070 
  4 N       -1.3480     0.5390     0.0090 N.pl3 1 <1>   0.3000 
  5 H       -2.2150     0.0120     0.0140 H     1 <1>   0.2700 
  6 C       -0.0680     0.0600    -0.0020 C.2   1 <1>  -0.3020 
  7 H        0.1420    -1.0000    -0.0060 H     1 <1>   0.1500 
  8 C        0.7280     1.1720    -0.0050 C.2   1 <1>   0.0270 
  9 I        2.7990     1.2130    -0.0200 I     1 <1>  -0.0270 
@<TRIPOS>BOND
  1   1   2  1   
  2   2   3  2   
  3   2   8  1   
  4   3   4  1   
  5   4   5  1   
  6   4   6  1   
  7   6   7  1   
  8   6   8  2   
  9   8   9  1   
@<TRIPOS>SUBSTRUCTURE
  1 ****   8 GROUP 4 **** **** 0

# MOE 2022.02 (io_trps.svl 2020.11)

@<TRIPOS>MOLECULE
SEL172
32 34 1 0 0 
SMALL
USER_CHARGES


@<TRIPOS>ATOM
  1 H        8.1660    -2.4420     1.1480 H     1 <1>   0.5000 
  2 O        7.3180    -2.7430     0.7590 O.3   1 <1>  -0.6500 
  3 C        6.9700    -1.7490    -0.0790 C.2   1 <1>   0.6590 
  4 O        7.6740    -0.7610    -0.2010 O.2   1 <1>  -0.5700 
  5 C        5.6660    -2.0100    -0.7850 C.3   1 <1>   0.0610 
  6 H        5.5330    -3.0960    -0.8690 H     1 <1>   0.0000 
  7 H        5.7830    -1.6490    -1.8160 H     1 <1>   0.0000 
  8 C        4.4360    -1.3640    -0.1200 C.3   1 <1>   0.0000 
  9 C        3.1750    -1.7340    -0.9490 C.3   1 <1>   0.0000 
 10 H        3.0620    -2.8250    -0.9990 H     1 <1>   0.0000 
 11 H        3.2860    -1.3820    -1.9830 H     1 <1>   0.0000 
 12 C        1.9100    -1.1170    -0.3310 C.3   1 <1>   0.0000 
 13 H        1.0340    -1.3900    -0.9310 H     1 <1>   0.0000 
 14 C        2.0580     0.4120    -0.2980 C.3   1 <1>   0.0000 
 15 H        1.1540     0.8680     0.1240 H     1 <1>   0.0000 
 16 H        2.1630     0.8010    -1.3190 H     1 <1>   0.0000 
 17 C        3.2840     0.8030     0.5420 C.3   1 <1>   0.0000 
 18 H        3.3830     1.8940     0.5650 H     1 <1>   0.0000 
 19 C        3.1080     0.2690     1.9730 C.3   1 <1>   0.0000 
 20 H        2.2230     0.7210     2.4360 H     1 <1>   0.0000 
 21 H        3.9700     0.5550     2.5880 H     1 <1>   0.0000 
 22 C        2.9640    -1.2620     1.9500 C.3   1 <1>   0.0000 
 23 H        2.8360    -1.6360     2.9720 H     1 <1>   0.0000 
 24 C        1.7400    -1.6430     1.1030 C.3   1 <1>   0.0000 
 25 H        0.8300    -1.2250     1.5500 H     1 <1>   0.0000 
 26 H        1.6170    -2.7330     1.0900 H     1 <1>   0.0000 
 27 C        4.2280    -1.8810     1.3270 C.3   1 <1>   0.0000 
 28 H        4.1430    -2.9750     1.3290 H     1 <1>   0.0000 
 29 H        5.0920    -1.6290     1.9540 H     1 <1>   0.0000 
 30 C        4.5470     0.1810    -0.0800 C.3   1 <1>   0.0000 
 31 H        5.4200     0.4910     0.5080 H     1 <1>   0.0000 
 32 H        4.6930     0.5760    -1.0940 H     1 <1>   0.0000 
@<TRIPOS>BOND
  1   1   2  1   
  2   2   3  1   
  3   3   4  2   
  4   3   5  1   
  5   5   6  1   
  6   5   7  1   
  7   5   8  1   
  8   8   9  1   
  9   8  27  1   
 10   8  30  1   
 11   9  10  1   
 12   9  11  1   
 13   9  12  1   
 14  12  13  1   
 15  12  14  1   
 16  12  24  1   
 17  14  15  1   
 18  14  16  1   
 19  14  17  1   
 20  17  18  1   
 21  17  19  1   
 22  17  30  1   
 23  19  20  1   
 24  19  21  1   
 25  19  22  1   
 26  22  23  1   
 27  22  24  1   
 28  22  27  1   
 29  24  25  1   
 30  24  26  1   
 31  27  28  1   
 32  27  29  1   
 33  30  31  1   
 34  30  32  1   
@<TRIPOS>SUBSTRUCTURE
  1 ****   8 GROUP 4 **** **** 0

# MOE 2022.02 (io_trps.svl 2020.11)

@<TRIPOS>MOLECULE
SEL173
28 30 1 0 0 
SMALL
USER_CHARGES


@<TRIPOS>ATOM
  1 H        6.1170     0.2910    -0.3070 H     1 <1>   0.3600 
  2 N        5.5340    -0.0530     0.4550 N.3   1 <1>  -0.9900 
  3 H        5.7200    -1.0530     0.5240 H     1 <1>   0.3600 
  4 C        4.1230     0.1680     0.1410 C.3   1 <1>   0.2700 
  5 C        3.2430    -0.3930     1.2790 C.3   1 <1>   0.0000 
  6 H        3.4970     0.0880     2.2330 H     1 <1>   0.0000 
  7 H        3.4220    -1.4680     1.4100 H     1 <1>   0.0000 
  8 C        1.7550    -0.1550     0.9630 C.3   1 <1>   0.0000 
  9 H        1.1360    -0.5550     1.7740 H     1 <1>   0.0000 
 10 C        1.5040     1.3550     0.8150 C.3   1 <1>   0.0000 
 11 H        1.7390     1.8680     1.7560 H     1 <1>   0.0000 
 12 H        0.4420     1.5390     0.6090 H     1 <1>   0.0000 
 13 C        2.3660     1.9250    -0.3240 C.3   1 <1>   0.0000 
 14 H        2.1810     3.0000    -0.4260 H     1 <1>   0.0000 
 15 C        2.0060     1.2090    -1.6380 C.3   1 <1>   0.0000 
 16 H        2.6040     1.6170    -2.4620 H     1 <1>   0.0000 
 17 H        0.9540     1.3910    -1.8870 H     1 <1>   0.0000 
 18 C        2.2600    -0.3020    -1.5030 C.3   1 <1>   0.0000 
 19 H        2.0000    -0.8060    -2.4400 H     1 <1>   0.0000 
 20 C        1.3990    -0.8600    -0.3570 C.3   1 <1>   0.0000 
 21 H        0.3350    -0.7140    -0.5840 H     1 <1>   0.0000 
 22 H        1.5590    -1.9400    -0.2600 H     1 <1>   0.0000 
 23 C        3.7470    -0.5390    -1.1810 C.3   1 <1>   0.0000 
 24 H        4.3660    -0.1640    -2.0070 H     1 <1>   0.0000 
 25 H        3.9390    -1.6170    -1.1080 H     1 <1>   0.0000 
 26 C        3.8520     1.6820    -0.0040 C.3   1 <1>   0.0000 
 27 H        4.4730     2.1090    -0.8030 H     1 <1>   0.0000 
 28 H        4.1200     2.2100     0.9200 H     1 <1>   0.0000 
@<TRIPOS>BOND
  1   1   2  1   
  2   2   3  1   
  3   2   4  1   
  4   4   5  1   
  5   4  23  1   
  6   4  26  1   
  7   5   6  1   
  8   5   7  1   
  9   5   8  1   
 10   8   9  1   
 11   8  10  1   
 12   8  20  1   
 13  10  11  1   
 14  10  12  1   
 15  10  13  1   
 16  13  14  1   
 17  13  15  1   
 18  13  26  1   
 19  15  16  1   
 20  15  17  1   
 21  15  18  1   
 22  18  19  1   
 23  18  20  1   
 24  18  23  1   
 25  20  21  1   
 26  20  22  1   
 27  23  24  1   
 28  23  25  1   
 29  26  27  1   
 30  26  28  1   
@<TRIPOS>SUBSTRUCTURE
  1 ****   4 GROUP 4 **** **** 0

# MOE 2022.02 (io_trps.svl 2020.11)

@<TRIPOS>MOLECULE
SEL174
21 21 1 0 0 
SMALL
USER_CHARGES


@<TRIPOS>ATOM
  1 H        0.3360     2.0580     0.1620 H     1 <1>   0.1500 
  2 C       -0.5320     1.4180     0.0800 C.2   1 <1>  -0.1360 
  3 C       -0.4790     0.0820    -0.0250 C.2   1 <1>  -0.0290 
  4 C        0.7840    -0.7510    -0.0480 C.3   1 <1>   0.1380 
  5 H        0.7260    -1.4820     0.7690 H     1 <1>   0.0000 
  6 H        0.7970    -1.3250    -0.9840 H     1 <1>   0.0000 
  7 C        2.1090     0.0100     0.0750 C.3   1 <1>   0.0000 
  8 H        2.1370     0.5710     1.0170 H     1 <1>   0.0000 
  9 H        2.2070     0.7340    -0.7430 H     1 <1>   0.0000 
 10 C        3.2990    -0.9370     0.0330 C.3   1 <1>   0.0000 
 11 H        3.2560    -1.6570     0.8580 H     1 <1>   0.0000 
 12 H        4.2340    -0.3750     0.1210 H     1 <1>   0.0000 
 13 H        3.3250    -1.4950    -0.9090 H     1 <1>   0.0000 
 14 N       -1.6560    -0.6290    -0.1240 N.am  1 <1>  -0.5390 
 15 H       -1.6250    -1.6420    -0.2050 H     1 <1>   0.3700 
 16 C       -2.8970    -0.0570    -0.1220 C.2   1 <1>   0.5000 
 17 S       -4.2780    -0.9730    -0.2440 S.2   1 <1>  -0.3800 
 18 N       -2.9400     1.3010    -0.0140 N.am  1 <1>  -0.4900 
 19 H       -3.8400     1.7590    -0.0090 H     1 <1>   0.3700 
 20 C       -1.8400     2.1060     0.0880 C.2   1 <1>   0.6160 
 21 O       -1.9130     3.3260     0.1820 O.2   1 <1>  -0.5700 
@<TRIPOS>BOND
  1   1   2  1   
  2   2   3  2   
  3   2  20  1   
  4   3   4  1   
  5   3  14  1   
  6   4   5  1   
  7   4   6  1   
  8   4   7  1   
  9   7   8  1   
 10   7   9  1   
 11   7  10  1   
 12  10  11  1   
 13  10  12  1   
 14  10  13  1   
 15  14  15  1   
 16  14  16  am  
 17  16  17  2   
 18  16  18  am  
 19  18  19  1   
 20  18  20  am  
 21  20  21  2   
@<TRIPOS>SUBSTRUCTURE
  1 ****   3 GROUP 4 **** **** 0

# MOE 2022.02 (io_trps.svl 2020.11)

@<TRIPOS>MOLECULE
SEL175
13 13 1 0 0 
SMALL
USER_CHARGES


@<TRIPOS>ATOM
  1 H        0.2090    -2.1870    -0.7220 H     1 <1>   0.0000 
  2 C        0.2820    -1.3420    -0.0280 C.3   1 <1>   0.1800 
  3 H       -0.5140    -0.6330    -0.2780 H     1 <1>   0.0000 
  4 H        0.1020    -1.7060     0.9880 H     1 <1>   0.0000 
  5 C        1.6100    -0.6890    -0.1280 C.2   1 <1>   0.1980 
  6 N        1.8080     0.5740    -0.4380 N.2   1 <1>  -0.3380 
  7 N        3.1490     0.9020    -0.4550 N.2   1 <1>  -0.3380 
  8 C        3.9150    -0.1240    -0.1550 C.2   1 <1>   0.1980 
  9 C        5.3970    -0.0900    -0.0920 C.3   1 <1>   0.1800 
 10 H        5.8320    -0.7240    -0.8710 H     1 <1>   0.0000 
 11 H        5.7570    -0.4330     0.8820 H     1 <1>   0.0000 
 12 H        5.7640     0.9310    -0.2450 H     1 <1>   0.0000 
 13 S        3.0520    -1.5740     0.1700 S.3   1 <1>  -0.0800 
@<TRIPOS>BOND
  1   1   2  1   
  2   2   3  1   
  3   2   4  1   
  4   2   5  1   
  5   5   6  2   
  6   5  13  1   
  7   6   7  1   
  8   7   8  2   
  9   8   9  1   
 10   8  13  1   
 11   9  10  1   
 12   9  11  1   
 13   9  12  1   
@<TRIPOS>SUBSTRUCTURE
  1 ****   8 GROUP 4 **** **** 0

# MOE 2022.02 (io_trps.svl 2020.11)

@<TRIPOS>MOLECULE
SEL176
23 24 1 0 0 
SMALL
USER_CHARGES


@<TRIPOS>ATOM
  1 H        3.0150     0.2090    -0.3770 H     1 <1>   0.1500 
  2 C        2.5050     1.1600    -0.2520 C.ar  1 <1>  -0.1500 
  3 C        1.1100     1.1760    -0.1370 C.ar  1 <1>  -0.1500 
  4 H        0.5610     0.2420    -0.1750 H     1 <1>   0.1500 
  5 C        0.4710     2.3950     0.0220 C.ar  1 <1>   0.1170 
  6 C        1.2030     3.5830     0.0670 C.ar  1 <1>  -0.1440 
  7 C        2.5870     3.5840    -0.0450 C.ar  1 <1>  -0.1500 
  8 H        3.1460     4.5130    -0.0080 H     1 <1>   0.1500 
  9 C        3.2320     2.3570    -0.2050 C.ar  1 <1>   0.1110 
 10 BR       5.1170     2.3090    -0.3620 Br    1 <1>  -0.1110 
 11 C        0.3110     4.7690     0.2420 C.3   1 <1>   0.1440 
 12 H        0.5380     5.3050     1.1690 H     1 <1>   0.0000 
 13 H        0.3900     5.4540    -0.6080 H     1 <1>   0.0000 
 14 C       -1.0780     4.1220     0.3030 C.3   1 <1>   0.3000 
 15 H       -1.5730     4.3310     1.2570 H     1 <1>   0.0000 
 16 H       -1.7240     4.4880    -0.5020 H     1 <1>   0.0000 
 17 N       -0.9030     2.6660     0.1590 N.am  1 <1>  -0.4770 
 18 C       -1.9170     1.7250     0.1590 C.2   1 <1>   0.5690 
 19 O       -1.7600     0.5110     0.0360 O.2   1 <1>  -0.5700 
 20 C       -3.3110     2.2810     0.3260 C.3   1 <1>   0.0610 
 21 H       -3.3990     2.8030     1.2820 H     1 <1>   0.0000 
 22 H       -3.5490     2.9590    -0.4980 H     1 <1>   0.0000 
 23 H       -4.0350     1.4600     0.3150 H     1 <1>   0.0000 
@<TRIPOS>BOND
  1   1   2  1   
  2   2   3  ar  
  3   2   9  ar  
  4   3   4  1   
  5   3   5  ar  
  6   5   6  ar  
  7   5  17  1   
  8   6   7  ar  
  9   6  11  1   
 10   7   8  1   
 11   7   9  ar  
 12   9  10  1   
 13  11  12  1   
 14  11  13  1   
 15  11  14  1   
 16  14  15  1   
 17  14  16  1   
 18  14  17  1   
 19  17  18  am  
 20  18  19  2   
 21  18  20  1   
 22  20  21  1   
 23  20  22  1   
 24  20  23  1   
@<TRIPOS>SUBSTRUCTURE
  1 ****   5 GROUP 4 **** **** 0

# MOE 2022.02 (io_trps.svl 2020.11)

@<TRIPOS>MOLECULE
SEL177
20 20 1 0 0 
SMALL
USER_CHARGES


@<TRIPOS>ATOM
  1 H       -7.0060    -1.4940    -0.2160 H     1 <1>   0.1500 
  2 C       -6.0150    -1.9370    -0.1680 C.ar  1 <1>  -0.1500 
  3 C       -4.8830    -1.1230    -0.1810 C.ar  1 <1>  -0.1500 
  4 H       -4.9950    -0.0440    -0.2390 H     1 <1>   0.1500 
  5 C       -3.6060    -1.6900    -0.1190 C.ar  1 <1>  -0.1500 
  6 H       -2.7530    -1.0190    -0.1310 H     1 <1>   0.1500 
  7 C       -3.4570    -3.0750    -0.0430 C.ar  1 <1>   0.0820 
  8 O       -2.2730    -3.7560     0.0210 O.3   1 <1>  -0.3630 
  9 C       -1.0740    -2.9790     0.0200 C.3   1 <1>   0.2800 
 10 H       -1.0100    -2.3870    -0.9010 H     1 <1>   0.0000 
 11 H       -1.0600    -2.3090     0.8890 H     1 <1>   0.0000 
 12 C        0.1030    -3.9430     0.0950 C.3   1 <1>   0.2000 
 13 H        0.0660    -4.6370    -0.7530 H     1 <1>   0.0000 
 14 H        0.0170    -4.5630     0.9950 H     1 <1>   0.0000 
 15 C        1.3720    -3.2130     0.0990 C.1   1 <1>   0.3570 
 16 N        2.3730    -2.6260     0.1020 N.1   1 <1>  -0.5570 
 17 C       -4.5970    -3.8850    -0.0310 C.ar  1 <1>  -0.1500 
 18 H       -4.4910    -4.9650     0.0270 H     1 <1>   0.1500 
 19 C       -5.8720    -3.3210    -0.0930 C.ar  1 <1>  -0.1500 
 20 H       -6.7510    -3.9600    -0.0830 H     1 <1>   0.1500 
@<TRIPOS>BOND
  1   1   2  1   
  2   2   3  ar  
  3   2  19  ar  
  4   3   4  1   
  5   3   5  ar  
  6   5   6  1   
  7   5   7  ar  
  8   7   8  1   
  9   7  17  ar  
 10   8   9  1   
 11   9  10  1   
 12   9  11  1   
 13   9  12  1   
 14  12  13  1   
 15  12  14  1   
 16  12  15  1   
 17  15  16  3   
 18  17  18  1   
 19  17  19  ar  
 20  19  20  1   
@<TRIPOS>SUBSTRUCTURE
  1 ****   8 GROUP 4 **** **** 0

# MOE 2022.02 (io_trps.svl 2020.11)

