@<TRIPOS>MOLECULE
UNP001
7 6 1 0 0 
SMALL
USER_CHARGES


@<TRIPOS>ATOM
  1 H        0.2560     1.0720    -0.5080 H     1 <1>   0.0600 
  2 C        0.2590     0.0340    -0.1340 C.2   1 <1>   0.4490 
  3 O       -0.7870    -0.5310     0.1670 O.2   1 <1>  -0.5700 
  4 C        1.6060    -0.6110    -0.0270 C.3   1 <1>   0.0610 
  5 H        1.5040    -1.6310     0.3510 H     1 <1>   0.0000 
  6 H        2.0710    -0.6340    -1.0150 H     1 <1>   0.0000 
  7 H        2.2270    -0.0300     0.6590 H     1 <1>   0.0000 
@<TRIPOS>BOND
  1   1   2  1   
  2   2   3  2   
  3   2   4  1   
  4   4   5  1   
  5   4   6  1   
  6   4   7  1   
@<TRIPOS>SUBSTRUCTURE
  1 ****   2 GROUP 4 **** **** 0

# MOE 2022.02 (io_trps.svl 2020.11)

@<TRIPOS>MOLECULE
UNP002
6 5 1 0 0 
SMALL
USER_CHARGES


@<TRIPOS>ATOM
  1 H       -0.2450    -0.9910     0.2290 H     1 <1>   0.4000 
  2 O        0.0290    -0.0580     0.2500 O.3   1 <1>  -0.6800 
  3 C        1.3790    -0.0110    -0.1760 C.3   1 <1>   0.2800 
  4 H        1.4550    -0.4060    -1.1920 H     1 <1>   0.0000 
  5 H        1.9970    -0.6030     0.5030 H     1 <1>   0.0000 
  6 H        1.7190     1.0270    -0.1640 H     1 <1>   0.0000 
@<TRIPOS>BOND
  1   1   2  1   
  2   2   3  1   
  3   3   4  1   
  4   3   5  1   
  5   3   6  1   
@<TRIPOS>SUBSTRUCTURE
  1 ****   2 GROUP 4 **** **** 0

# MOE 2022.02 (io_trps.svl 2020.11)

@<TRIPOS>MOLECULE
UNP003
11 10 1 0 0 
SMALL
NO_CHARGES


@<TRIPOS>ATOM
  1 H       -0.1640    -0.5410    -0.5150 H     1 <1>   0.0000 
  2 C        0.0370     0.2390     0.2260 C.3   1 <1>   0.0000 
  3 H       -0.8480     0.8810     0.2920 H     1 <1>   0.0000 
  4 H        0.1810    -0.2410     1.1990 H     1 <1>   0.0000 
  5 C        1.2550     1.0590    -0.1630 C.3   1 <1>   0.0000 
  6 H        1.4160     1.8470     0.5810 H     1 <1>   0.0000 
  7 H        1.0710     1.5510    -1.1240 H     1 <1>   0.0000 
  8 C        2.5020     0.1980    -0.2650 C.3   1 <1>   0.0000 
  9 H        2.3780    -0.5830    -1.0220 H     1 <1>   0.0000 
 10 H        2.7250    -0.2840     0.6920 H     1 <1>   0.0000 
 11 H        3.3640     0.8100    -0.5470 H     1 <1>   0.0000 
@<TRIPOS>BOND
  1   1   2  1   
  2   2   3  1   
  3   2   4  1   
  4   2   5  1   
  5   5   6  1   
  6   5   7  1   
  7   5   8  1   
  8   8   9  1   
  9   8  10  1   
 10   8  11  1   
@<TRIPOS>SUBSTRUCTURE
  1 ****   5 GROUP 4 **** **** 0

# MOE 2022.02 (io_trps.svl 2020.11)

@<TRIPOS>MOLECULE
UNP004
19 18 1 0 0 
SMALL
USER_CHARGES


@<TRIPOS>ATOM
  1 H        1.6810    -1.3810    -0.0740 H     1 <1>   0.1500 
  2 C        1.7360    -0.3010     0.0700 C.2   1 <1>  -0.1500 
  3 C        2.9560     0.2550     0.1460 C.2   1 <1>  -0.2880 
  4 H        3.0770     1.3250     0.2870 H     1 <1>   0.1500 
  5 C        4.2280    -0.5240     0.0450 C.3   1 <1>   0.1380 
  6 H        4.0500    -1.5950    -0.0980 H     1 <1>   0.0000 
  7 H        4.8210    -0.1610    -0.8000 H     1 <1>   0.0000 
  8 H        4.8160    -0.3950     0.9590 H     1 <1>   0.0000 
  9 C        0.4520     0.3950     0.1590 C.2   1 <1>  -0.1380 
 10 C       -0.6780    -0.3340     0.0520 C.2   1 <1>  -0.2880 
 11 H       -0.5940    -1.4110    -0.0950 H     1 <1>   0.1500 
 12 C       -2.1000     0.1300     0.1030 C.3   1 <1>   0.1380 
 13 H       -2.2150     1.2080     0.2180 H     1 <1>   0.0000 
 14 H       -2.6110    -0.1600    -0.8210 H     1 <1>   0.0000 
 15 H       -2.6130    -0.3530     0.9400 H     1 <1>   0.0000 
 16 C        0.4790     1.8880     0.3670 C.3   1 <1>   0.1380 
 17 H        1.0050     2.1370     1.2950 H     1 <1>   0.0000 
 18 H        0.9870     2.3830    -0.4690 H     1 <1>   0.0000 
 19 H       -0.5130     2.3380     0.4420 H     1 <1>   0.0000 
@<TRIPOS>BOND
  1   1   2  1   
  2   2   3  2   
  3   2   9  1   
  4   3   4  1   
  5   3   5  1   
  6   5   6  1   
  7   5   7  1   
  8   5   8  1   
  9   9  10  2   
 10   9  16  1   
 11  10  11  1   
 12  10  12  1   
 13  12  13  1   
 14  12  14  1   
 15  12  15  1   
 16  16  17  1   
 17  16  18  1   
 18  16  19  1   
@<TRIPOS>SUBSTRUCTURE
  1 ****   9 GROUP 4 **** **** 0

# MOE 2022.02 (io_trps.svl 2020.11)

@<TRIPOS>MOLECULE
UNP005
9 8 1 0 0 
SMALL
USER_CHARGES


@<TRIPOS>ATOM
  1 H        0.3390     1.3460     1.2910 H     1 <1>   0.0600 
  2 C        0.2090     0.7570     0.3660 C.2   1 <1>   0.4490 
  3 O       -0.8180     0.8430    -0.3000 O.2   1 <1>  -0.5700 
  4 C        1.3640    -0.1050    -0.0280 C.3   1 <1>   0.1220 
  5 H        1.6670    -0.7040     0.8360 H     1 <1>   0.0000 
  6 H        1.0660    -0.7860    -0.8300 H     1 <1>   0.0000 
  7 C        2.5130     0.7240    -0.5040 C.2   1 <1>   0.4490 
  8 H        2.3730     1.2310    -1.4750 H     1 <1>   0.0600 
  9 O        3.5450     0.8680     0.1430 O.2   1 <1>  -0.5700 
@<TRIPOS>BOND
  1   1   2  1   
  2   2   3  2   
  3   2   4  1   
  4   4   5  1   
  5   4   6  1   
  6   4   7  1   
  7   7   8  1   
  8   7   9  2   
@<TRIPOS>SUBSTRUCTURE
  1 ****   4 GROUP 4 **** **** 0

# MOE 2022.02 (io_trps.svl 2020.11)

@<TRIPOS>MOLECULE
UNP006
7 6 1 0 0 
SMALL
USER_CHARGES


@<TRIPOS>ATOM
  1 H       -0.8370    -0.1670     0.0930 H     1 <1>   0.1770 
  2 C        0.2280    -0.1350     0.1060 C.1   1 <1>  -0.1770 
  3 C        1.4280    -0.1000     0.1210 C.1   1 <1>  -0.2000 
  4 C        2.8900    -0.0570     0.1390 C.3   1 <1>   0.2000 
  5 H        3.3020    -1.0050     0.4990 H     1 <1>   0.0000 
  6 H        3.2860     0.1250    -0.8640 H     1 <1>   0.0000 
  7 H        3.2480     0.7410     0.7960 H     1 <1>   0.0000 
@<TRIPOS>BOND
  1   1   2  1   
  2   2   3  3   
  3   3   4  1   
  4   4   5  1   
  5   4   6  1   
  6   4   7  1   
@<TRIPOS>SUBSTRUCTURE
  1 ****   3 GROUP 4 **** **** 0

# MOE 2022.02 (io_trps.svl 2020.11)

@<TRIPOS>MOLECULE
UNP007
12 11 1 0 0 
SMALL
USER_CHARGES


@<TRIPOS>ATOM
  1 H       -0.7650    -1.0290    -0.0530 H     1 <1>   0.1500 
  2 C        0.1600    -0.4870    -0.2230 C.2   1 <1>  -0.3000 
  3 H        0.1380     0.3300    -0.9370 H     1 <1>   0.1500 
  4 C        1.2800    -0.8230     0.4290 C.2   1 <1>  -0.2880 
  5 H        1.2490    -1.6480     1.1390 H     1 <1>   0.1500 
  6 C        2.5960    -0.1230     0.2580 C.3   1 <1>   0.1380 
  7 H        2.9150     0.2690     1.2300 H     1 <1>   0.0000 
  8 H        2.4980     0.7360    -0.4160 H     1 <1>   0.0000 
  9 C        3.6600    -1.0640    -0.2820 C.3   1 <1>   0.0000 
 10 H        3.3790    -1.4570    -1.2650 H     1 <1>   0.0000 
 11 H        3.8180    -1.9130     0.3910 H     1 <1>   0.0000 
 12 H        4.6130    -0.5360    -0.3890 H     1 <1>   0.0000 
@<TRIPOS>BOND
  1   1   2  1   
  2   2   3  1   
  3   2   4  2   
  4   4   5  1   
  5   4   6  1   
  6   6   7  1   
  7   6   8  1   
  8   6   9  1   
  9   9  10  1   
 10   9  11  1   
 11   9  12  1   
@<TRIPOS>SUBSTRUCTURE
  1 ****   4 GROUP 4 **** **** 0

# MOE 2022.02 (io_trps.svl 2020.11)

@<TRIPOS>MOLECULE
UNP008
5 4 1 0 0 
SMALL
USER_CHARGES


@<TRIPOS>ATOM
  1 H       -0.1330     0.8130     1.1800 H     1 <1>   0.0000 
  2 C        0.2330     0.2840     0.2980 C.3   1 <1>   0.4600 
  3 H        0.6310     0.9860    -0.4360 H     1 <1>   0.0000 
  4 BR       1.6670    -0.8900     0.8500 Br    1 <1>  -0.2300 
  5 BR      -1.2570    -0.6510    -0.5050 Br    1 <1>  -0.2300 
@<TRIPOS>BOND
  1   1   2  1   
  2   2   3  1   
  3   2   4  1   
  4   2   5  1   
@<TRIPOS>SUBSTRUCTURE
  1 ****   2 GROUP 4 **** **** 0

# MOE 2022.02 (io_trps.svl 2020.11)

@<TRIPOS>MOLECULE
UNP009
6 5 1 0 0 
SMALL
USER_CHARGES


@<TRIPOS>ATOM
  1 H       -0.0630    -0.8460     0.0010 H     1 <1>   0.1500 
  2 C       -0.0540     0.2390     0.0000 C.2   1 <1>  -0.3000 
  3 H       -1.0100     0.7510    -0.0010 H     1 <1>   0.1500 
  4 C        1.0880     0.9300     0.0000 C.2   1 <1>  -0.0400 
  5 H        1.1070     2.0140    -0.0020 H     1 <1>   0.1500 
  6 BR       2.7720     0.1580     0.0010 Br    1 <1>  -0.1100 
@<TRIPOS>BOND
  1   1   2  1   
  2   2   3  1   
  3   2   4  2   
  4   4   5  1   
  5   4   6  1   
@<TRIPOS>SUBSTRUCTURE
  1 ****   4 GROUP 4 **** **** 0

# MOE 2022.02 (io_trps.svl 2020.11)

@<TRIPOS>MOLECULE
UNP010
11 11 1 0 0 
SMALL
USER_CHARGES


@<TRIPOS>ATOM
  1 H       -2.8710     2.4510     0.0010 H     1 <1>   0.1500 
  2 C       -1.9020     1.9600     0.0000 C.ar  1 <1>   0.1600 
  3 N       -1.9420     0.6100     0.0000 N.ar  1 <1>  -0.6200 
  4 C       -0.7520    -0.0300    -0.0010 C.ar  1 <1>   0.1600 
  5 H       -0.8110    -1.1140    -0.0010 H     1 <1>   0.1500 
  6 C        0.4720     0.6190    -0.0010 C.ar  1 <1>  -0.1500 
  7 H        1.3970     0.0540    -0.0010 H     1 <1>   0.1500 
  8 C        0.4800     2.0100     0.0000 C.ar  1 <1>  -0.1500 
  9 H        1.4210     2.5530    -0.0010 H     1 <1>   0.1500 
 10 C       -0.7290     2.6980     0.0000 C.ar  1 <1>  -0.1500 
 11 H       -0.7570     3.7810     0.0000 H     1 <1>   0.1500 
@<TRIPOS>BOND
  1   1   2  1   
  2   2   3  ar  
  3   2  10  ar  
  4   3   4  ar  
  5   4   5  1   
  6   4   6  ar  
  7   6   7  1   
  8   6   8  ar  
  9   8   9  1   
 10   8  10  ar  
 11  10  11  1   
@<TRIPOS>SUBSTRUCTURE
  1 ****   2 GROUP 4 **** **** 0

# MOE 2022.02 (io_trps.svl 2020.11)

@<TRIPOS>MOLECULE
UNP011
10 9 1 0 0 
SMALL
USER_CHARGES


@<TRIPOS>ATOM
  1 H        0.2480    -0.5560    -0.9410 H     1 <1>   0.3600 
  2 N        0.0780     0.1250    -0.2020 N.3   1 <1>  -0.9900 
  3 H       -0.7200     0.6830    -0.5060 H     1 <1>   0.3600 
  4 C        1.2410     0.9890    -0.0520 C.3   1 <1>   0.2700 
  5 H        1.4270     1.5240    -0.9890 H     1 <1>   0.0000 
  6 H        1.0410     1.7340     0.7250 H     1 <1>   0.0000 
  7 C        2.4640     0.1710     0.3250 C.3   1 <1>   0.0000 
  8 H        2.3090    -0.3610     1.2700 H     1 <1>   0.0000 
  9 H        2.7030    -0.5660    -0.4490 H     1 <1>   0.0000 
 10 H        3.3330     0.8260     0.4460 H     1 <1>   0.0000 
@<TRIPOS>BOND
  1   1   2  1   
  2   2   3  1   
  3   2   4  1   
  4   4   5  1   
  5   4   6  1   
  6   4   7  1   
  7   7   8  1   
  8   7   9  1   
  9   7  10  1   
@<TRIPOS>SUBSTRUCTURE
  1 ****   4 GROUP 4 **** **** 0

# MOE 2022.02 (io_trps.svl 2020.11)

@<TRIPOS>MOLECULE
UNP012
10 9 1 0 0 
SMALL
USER_CHARGES


@<TRIPOS>ATOM
  1 H        3.5430     0.8920    -0.2750 H     1 <1>   0.0000 
  2 C        3.0320    -0.0570    -0.0970 C.3   1 <1>   0.1940 
  3 H        3.6200    -0.8710    -0.5270 H     1 <1>   0.0000 
  4 H        2.9120    -0.2230     0.9760 H     1 <1>   0.0000 
  5 S        1.4120    -0.0300    -0.9030 S.o   1 <1>   0.1130 
  6 O        0.6840    -1.2760    -0.4940 O.2   1 <1>  -0.5000 
  7 C        0.7450     1.3360     0.0780 C.3   1 <1>   0.1940 
  8 H        1.3380     2.2360    -0.1010 H     1 <1>   0.0000 
  9 H       -0.2870     1.5160    -0.2320 H     1 <1>   0.0000 
 10 H        0.7650     1.0780     1.1400 H     1 <1>   0.0000 
@<TRIPOS>BOND
  1   1   2  1   
  2   2   3  1   
  3   2   4  1   
  4   2   5  1   
  5   5   6  2   
  6   5   7  1   
  7   7   8  1   
  8   7   9  1   
  9   7  10  1   
@<TRIPOS>SUBSTRUCTURE
  1 ****   5 GROUP 4 **** **** 0

# MOE 2022.02 (io_trps.svl 2020.11)

@<TRIPOS>MOLECULE
UNP013
15 14 1 0 0 
SMALL
USER_CHARGES


@<TRIPOS>ATOM
  1 H        3.0710    -1.0690     1.9400 H     1 <1>   0.1500 
  2 C        3.4340    -1.3750     0.9640 C.2   1 <1>  -0.3000 
  3 H        4.4490    -1.7580     0.9050 H     1 <1>   0.1500 
  4 C        2.6690    -1.2890    -0.1310 C.2   1 <1>  -0.2880 
  5 H        3.0830    -1.6100    -1.0860 H     1 <1>   0.1500 
  6 C        1.2530    -0.7700    -0.1330 C.3   1 <1>   0.1380 
  7 H        0.9610    -0.4820     0.8850 H     1 <1>   0.0000 
  8 C        0.2930    -1.8590    -0.6100 C.3   1 <1>   0.0000 
  9 H        0.5180    -2.1760    -1.6340 H     1 <1>   0.0000 
 10 H       -0.7410    -1.4980    -0.5900 H     1 <1>   0.0000 
 11 H        0.3500    -2.7430     0.0360 H     1 <1>   0.0000 
 12 C        1.1470     0.4690    -1.0220 C.3   1 <1>   0.0000 
 13 H        1.4110     0.2430    -2.0610 H     1 <1>   0.0000 
 14 H        1.8140     1.2630    -0.6700 H     1 <1>   0.0000 
 15 H        0.1250     0.8640    -1.0130 H     1 <1>   0.0000 
@<TRIPOS>BOND
  1   1   2  1   
  2   2   3  1   
  3   2   4  2   
  4   4   5  1   
  5   4   6  1   
  6   6   7  1   
  7   6   8  1   
  8   6  12  1   
  9   8   9  1   
 10   8  10  1   
 11   8  11  1   
 12  12  13  1   
 13  12  14  1   
 14  12  15  1   
@<TRIPOS>SUBSTRUCTURE
  1 ****   6 GROUP 4 **** **** 0

# MOE 2022.02 (io_trps.svl 2020.11)

@<TRIPOS>MOLECULE
UNP014
9 8 1 0 0 
SMALL
USER_CHARGES


@<TRIPOS>ATOM
  1 H       -1.0240     1.9000    -0.5190 H     1 <1>   0.1500 
  2 C       -0.9140     0.9590     0.0060 C.2   1 <1>  -0.0100 
  3 CL      -2.4220     0.2640     0.4280 Cl    1 <1>  -0.1400 
  4 C        0.2530     0.3830     0.3050 C.2   1 <1>  -0.2880 
  5 H        0.2670    -0.5650     0.8380 H     1 <1>   0.1500 
  6 C        1.5790     0.9670    -0.0510 C.3   1 <1>   0.1380 
  7 H        2.1330     0.2730    -0.6900 H     1 <1>   0.0000 
  8 H        2.1660     1.1430     0.8560 H     1 <1>   0.0000 
  9 H        1.4820     1.9180    -0.5850 H     1 <1>   0.0000 
@<TRIPOS>BOND
  1   1   2  1   
  2   2   3  1   
  3   2   4  2   
  4   4   5  1   
  5   4   6  1   
  6   6   7  1   
  7   6   8  1   
  8   6   9  1   
@<TRIPOS>SUBSTRUCTURE
  1 ****   2 GROUP 4 **** **** 0

# MOE 2022.02 (io_trps.svl 2020.11)

@<TRIPOS>MOLECULE
UNP015
5 4 1 0 0 
SMALL
USER_CHARGES


@<TRIPOS>ATOM
  1 H        0.0960    -0.5290    -0.9300 H     1 <1>   0.0000 
  2 C       -0.1740    -0.0360     0.0080 C.3   1 <1>   0.1900 
  3 H       -0.1200     1.0450    -0.1550 H     1 <1>   0.0000 
  4 H       -1.2150    -0.2880     0.2310 H     1 <1>   0.0000 
  5 I        1.1070    -0.6330     1.5780 I     1 <1>  -0.1900 
@<TRIPOS>BOND
  1   1   2  1   
  2   2   3  1   
  3   2   4  1   
  4   2   5  1   
@<TRIPOS>SUBSTRUCTURE
  1 ****   2 GROUP 4 **** **** 0

# MOE 2022.02 (io_trps.svl 2020.11)

@<TRIPOS>MOLECULE
UNP016
14 13 1 0 0 
SMALL
USER_CHARGES


@<TRIPOS>ATOM
  1 H       -1.0780    -1.6250    -0.2470 H     1 <1>   0.1500 
  2 C       -0.1620    -1.0440    -0.1970 C.2   1 <1>  -0.3000 
  3 H       -0.2570     0.0330    -0.0960 H     1 <1>   0.1500 
  4 C        1.0340    -1.6460    -0.2500 C.2   1 <1>  -0.2880 
  5 H        1.0690    -2.7290    -0.3550 H     1 <1>   0.1500 
  6 C        2.3500    -0.9290    -0.1960 C.3   1 <1>   0.3680 
  7 H        2.9230    -1.1740    -1.0950 H     1 <1>   0.0000 
  8 H        2.2080     0.1560    -0.1550 H     1 <1>   0.0000 
  9 S        3.2630    -1.4710     1.2820 S.3   1 <1>  -0.2300 
 10 S        5.0380    -0.4470     1.0950 S.3   1 <1>  -0.2300 
 11 C        5.9860    -1.5420     0.0090 C.3   1 <1>   0.2300 
 12 H        5.4920    -1.6470    -0.9610 H     1 <1>   0.0000 
 13 H        6.1160    -2.5240     0.4700 H     1 <1>   0.0000 
 14 H        6.9760    -1.1080    -0.1570 H     1 <1>   0.0000 
@<TRIPOS>BOND
  1   1   2  1   
  2   2   3  1   
  3   2   4  2   
  4   4   5  1   
  5   4   6  1   
  6   6   7  1   
  7   6   8  1   
  8   6   9  1   
  9   9  10  1   
 10  10  11  1   
 11  11  12  1   
 12  11  13  1   
 13  11  14  1   
@<TRIPOS>SUBSTRUCTURE
  1 ****   6 GROUP 4 **** **** 0

# MOE 2022.02 (io_trps.svl 2020.11)

@<TRIPOS>MOLECULE
UNP017
16 15 1 0 0 
SMALL
USER_CHARGES


@<TRIPOS>ATOM
  1 H        3.0780    -0.3750     2.0320 H     1 <1>   0.4000 
  2 O        3.2890     0.4680     1.5930 O.3   1 <1>  -0.4000 
  3 O        1.9470     1.0320     1.6790 O.3   1 <1>  -0.2800 
  4 C        1.4620     1.2220     0.3370 C.3   1 <1>   0.2800 
  5 C        1.3700    -0.1210    -0.3950 C.3   1 <1>   0.0000 
  6 H        0.7890    -0.8430     0.1890 H     1 <1>   0.0000 
  7 H        0.9010    -0.0100    -1.3780 H     1 <1>   0.0000 
  8 H        2.3610    -0.5640    -0.5450 H     1 <1>   0.0000 
  9 C        2.3540     2.2120    -0.4190 C.3   1 <1>   0.0000 
 10 H        3.3630     1.8110    -0.5660 H     1 <1>   0.0000 
 11 H        1.9410     2.4510    -1.4050 H     1 <1>   0.0000 
 12 H        2.4670     3.1440     0.1470 H     1 <1>   0.0000 
 13 C        0.0560     1.8160     0.4810 C.3   1 <1>   0.0000 
 14 H        0.0870     2.7610     1.0360 H     1 <1>   0.0000 
 15 H       -0.4070     2.0020    -0.4940 H     1 <1>   0.0000 
 16 H       -0.5950     1.1430     1.0510 H     1 <1>   0.0000 
@<TRIPOS>BOND
  1   1   2  1   
  2   2   3  1   
  3   3   4  1   
  4   4   5  1   
  5   4   9  1   
  6   4  13  1   
  7   5   6  1   
  8   5   7  1   
  9   5   8  1   
 10   9  10  1   
 11   9  11  1   
 12   9  12  1   
 13  13  14  1   
 14  13  15  1   
 15  13  16  1   
@<TRIPOS>SUBSTRUCTURE
  1 ****   4 GROUP 4 **** **** 0

# MOE 2022.02 (io_trps.svl 2020.11)

@<TRIPOS>MOLECULE
UNP018
19 19 1 0 0 
SMALL
USER_CHARGES


@<TRIPOS>ATOM
  1 H        8.0820     0.7430    -0.0260 H     1 <1>   0.4000 
  2 O        7.6600    -0.1320    -0.0630 O.3   1 <1>  -0.6800 
  3 C        6.2510     0.0840    -0.0570 C.3   1 <1>   0.2800 
  4 H        5.9980     0.7000    -0.9250 H     1 <1>   0.0000 
  5 H        5.9940     0.6320     0.8560 H     1 <1>   0.0000 
  6 C        5.5330    -1.2630    -0.1090 C.3   1 <1>   0.1440 
  7 H        5.8780    -1.8680     0.7400 H     1 <1>   0.0000 
  8 H        5.8630    -1.7940    -1.0120 H     1 <1>   0.0000 
  9 C        4.0210    -1.2400    -0.0960 C.ar  1 <1>  -0.1440 
 10 C        3.2590    -0.0640    -0.0910 C.ar  1 <1>  -0.1500 
 11 H        3.7300     0.9150    -0.0940 H     1 <1>   0.1500 
 12 C        1.8620    -0.1180    -0.0820 C.ar  1 <1>  -0.1500 
 13 H        1.2850     0.8030    -0.0770 H     1 <1>   0.1500 
 14 C        1.2070    -1.3460    -0.0790 C.ar  1 <1>  -0.1500 
 15 H        0.1210    -1.3860    -0.0720 H     1 <1>   0.1500 
 16 C        1.9480    -2.5240    -0.0860 C.ar  1 <1>  -0.1500 
 17 H        1.4420    -3.4860    -0.0850 H     1 <1>   0.1500 
 18 C        3.3430    -2.4710    -0.0950 C.ar  1 <1>  -0.1500 
 19 H        3.9070    -3.4020    -0.1010 H     1 <1>   0.1500 
@<TRIPOS>BOND
  1   1   2  1   
  2   2   3  1   
  3   3   4  1   
  4   3   5  1   
  5   3   6  1   
  6   6   7  1   
  7   6   8  1   
  8   6   9  1   
  9   9  10  ar  
 10   9  18  ar  
 11  10  11  1   
 12  10  12  ar  
 13  12  13  1   
 14  12  14  ar  
 15  14  15  1   
 16  14  16  ar  
 17  16  17  1   
 18  16  18  ar  
 19  18  19  1   
@<TRIPOS>SUBSTRUCTURE
  1 ****   9 GROUP 4 **** **** 0

# MOE 2022.02 (io_trps.svl 2020.11)

@<TRIPOS>MOLECULE
UNP019
11 11 1 0 0 
SMALL
USER_CHARGES


@<TRIPOS>ATOM
  1 H       -2.2510    -0.3620    -0.0050 H     1 <1>   0.1500 
  2 C       -1.5900     0.4940    -0.0030 C.2   1 <1>  -0.0730 
  3 O       -2.3030     1.6710    -0.0030 O.3   1 <1>  -0.1530 
  4 C       -1.5900     2.8470    -0.0010 C.2   1 <1>  -0.0730 
  5 H       -2.2500     3.7030    -0.0010 H     1 <1>   0.1500 
  6 C       -0.2560     2.9270     0.0020 C.2   1 <1>  -0.1360 
  7 H        0.2890     3.8610     0.0040 H     1 <1>   0.1500 
  8 C        0.5180     1.6700     0.0030 C.2   1 <1>   0.5410 
  9 O        1.7420     1.6700     0.0060 O.2   1 <1>  -0.5700 
 10 C       -0.2560     0.4140     0.0000 C.2   1 <1>  -0.1360 
 11 H        0.2890    -0.5200     0.0010 H     1 <1>   0.1500 
@<TRIPOS>BOND
  1   1   2  1   
  2   2   3  1   
  3   2  10  2   
  4   3   4  1   
  5   4   5  1   
  6   4   6  2   
  7   6   7  1   
  8   6   8  1   
  9   8   9  2   
 10   8  10  1   
 11  10  11  1   
@<TRIPOS>SUBSTRUCTURE
  1 ****   8 GROUP 4 **** **** 0

# MOE 2022.02 (io_trps.svl 2020.11)

@<TRIPOS>MOLECULE
UNP020
10 9 1 0 0 
SMALL
USER_CHARGES


@<TRIPOS>ATOM
  1 H        0.2710     0.9040     0.5410 H     1 <1>   0.3600 
  2 N        0.2520    -0.1150     0.5630 N.3   1 <1>  -0.9000 
  3 C        1.4500    -0.6300    -0.0850 C.3   1 <1>   0.2700 
  4 H        1.4770    -1.7240    -0.0560 H     1 <1>   0.0000 
  5 H        2.3360    -0.2650     0.4430 H     1 <1>   0.0000 
  6 H        1.5180    -0.2980    -1.1260 H     1 <1>   0.0000 
  7 C       -0.9490    -0.5870    -0.1120 C.3   1 <1>   0.2700 
  8 H       -0.9820    -0.2530    -1.1540 H     1 <1>   0.0000 
  9 H       -1.8330    -0.1900     0.3960 H     1 <1>   0.0000 
 10 H       -1.0160    -1.6790    -0.0840 H     1 <1>   0.0000 
@<TRIPOS>BOND
  1   1   2  1   
  2   2   3  1   
  3   2   7  1   
  4   3   4  1   
  5   3   5  1   
  6   3   6  1   
  7   7   8  1   
  8   7   9  1   
  9   7  10  1   
@<TRIPOS>SUBSTRUCTURE
  1 ****   2 GROUP 4 **** **** 0

# MOE 2022.02 (io_trps.svl 2020.11)

@<TRIPOS>MOLECULE
UNP021
10 10 1 0 0 
SMALL
USER_CHARGES


@<TRIPOS>ATOM
  1 H        3.7420     0.1430    -1.0340 H     1 <1>   0.0000 
  2 C        3.2830    -0.3270    -0.1590 C.3   1 <1>   0.0950 
  3 H        2.8180    -1.2650    -0.4800 H     1 <1>   0.0000 
  4 H        4.0770    -0.5670     0.5550 H     1 <1>   0.0000 
  5 C        2.3000     0.6010     0.4610 C.3   1 <1>  -0.0470 
  6 H        2.7390     1.5200     0.8230 H     1 <1>   0.1000 
  7 O        1.3090    -0.0400     1.2700 O.3   1 <1>  -0.2960 
  8 C        0.8490     0.5840     0.0610 C.3   1 <1>  -0.0520 
  9 H        0.2780     1.4980     0.1590 H     1 <1>   0.1000 
 10 H        0.5340    -0.0640    -0.7470 H     1 <1>   0.1000 
@<TRIPOS>BOND
  1   1   2  1   
  2   2   3  1   
  3   2   4  1   
  4   2   5  1   
  5   5   6  1   
  6   5   7  1   
  7   5   8  1   
  8   7   8  1   
  9   8   9  1   
 10   8  10  1   
@<TRIPOS>SUBSTRUCTURE
  1 ****   5 GROUP 4 **** **** 0

# MOE 2022.02 (io_trps.svl 2020.11)

@<TRIPOS>MOLECULE
UNP022
20 19 1 0 0 
SMALL
USER_CHARGES


@<TRIPOS>ATOM
  1 H        0.5250    -2.2150    -1.5990 H     1 <1>   0.3600 
  2 N        0.1230    -2.3520    -0.6720 N.3   1 <1>  -0.9900 
  3 H       -0.8150    -1.9510    -0.7110 H     1 <1>   0.3600 
  4 C        0.9140    -1.6250     0.3240 C.3   1 <1>   0.2700 
  5 H        0.9600    -0.5700     0.0300 H     1 <1>   0.0000 
  6 H        0.3920    -1.6830     1.2860 H     1 <1>   0.0000 
  7 C        2.3230    -2.2130     0.4540 C.3   1 <1>   0.2300 
  8 H        2.8380    -2.1730    -0.5120 H     1 <1>   0.0000 
  9 H        2.2630    -3.2570     0.7790 H     1 <1>   0.0000 
 10 S        3.2820    -1.2580     1.6770 S.3   1 <1>  -0.2300 
 11 S        5.0540    -2.3000     1.7530 S.3   1 <1>  -0.2300 
 12 C        5.9800    -1.5910     0.3490 C.3   1 <1>   0.2300 
 13 H        6.0700    -0.5080     0.4880 H     1 <1>   0.0000 
 14 H        5.4270    -1.7850    -0.5760 H     1 <1>   0.0000 
 15 C        7.3720    -2.2270     0.2720 C.3   1 <1>   0.2700 
 16 H        7.9330    -2.0200     1.1910 H     1 <1>   0.0000 
 17 H        7.2950    -3.3150     0.1650 H     1 <1>   0.0000 
 18 N        8.1360    -1.7000    -0.8620 N.3   1 <1>  -0.9900 
 19 H        9.0620    -2.1290    -0.8680 H     1 <1>   0.3600 
 20 H        7.6920    -1.9780    -1.7370 H     1 <1>   0.3600 
@<TRIPOS>BOND
  1   1   2  1   
  2   2   3  1   
  3   2   4  1   
  4   4   5  1   
  5   4   6  1   
  6   4   7  1   
  7   7   8  1   
  8   7   9  1   
  9   7  10  1   
 10  10  11  1   
 11  11  12  1   
 12  12  13  1   
 13  12  14  1   
 14  12  15  1   
 15  15  16  1   
 16  15  17  1   
 17  15  18  1   
 18  18  19  1   
 19  18  20  1   
@<TRIPOS>SUBSTRUCTURE
  1 ****  11 GROUP 4 **** **** 0

# MOE 2022.02 (io_trps.svl 2020.11)

@<TRIPOS>MOLECULE
UNP023
16 16 1 0 0 
SMALL
USER_CHARGES


@<TRIPOS>ATOM
  1 H        5.0410    -0.6510     0.6030 H     1 <1>   0.1500 
  2 C        4.8750    -1.1720    -0.3350 C.2   1 <1>  -0.3000 
  3 H        5.7190    -1.2860    -1.0080 H     1 <1>   0.1500 
  4 C        3.6680    -1.6560    -0.6550 C.2   1 <1>  -0.1900 
  5 H        3.5630    -2.1750    -1.6070 H     1 <1>   0.1500 
  6 C        2.4650    -1.5670     0.1760 C.3   1 <1>  -0.0600 
  7 H        2.4370    -2.2770     0.9970 H     1 <1>   0.1000 
  8 C        1.8380    -0.2150     0.4130 C.3   1 <1>  -0.2000 
  9 H        2.2860     0.6580    -0.0490 H     1 <1>   0.1000 
 10 H        1.4160    -0.0220     1.3920 H     1 <1>   0.1000 
 11 C        1.1570    -1.2090    -0.4870 C.3   1 <1>  -0.1950 
 12 H        1.1510    -0.9970    -1.5510 H     1 <1>   0.1000 
 13 C       -0.1080    -1.8670    -0.0530 C.3   1 <1>   0.0950 
 14 H       -0.9650    -1.2310    -0.2960 H     1 <1>   0.0000 
 15 H       -0.1230    -2.0620     1.0250 H     1 <1>   0.0000 
 16 H       -0.2330    -2.8210    -0.5740 H     1 <1>   0.0000 
@<TRIPOS>BOND
  1   1   2  1   
  2   2   3  1   
  3   2   4  2   
  4   4   5  1   
  5   4   6  1   
  6   6   7  1   
  7   6   8  1   
  8   6  11  1   
  9   8   9  1   
 10   8  10  1   
 11   8  11  1   
 12  11  12  1   
 13  11  13  1   
 14  13  14  1   
 15  13  15  1   
 16  13  16  1   
@<TRIPOS>SUBSTRUCTURE
  1 ****   6 GROUP 4 **** **** 0

# MOE 2022.02 (io_trps.svl 2020.11)

@<TRIPOS>MOLECULE
UNP024
22 21 1 0 0 
SMALL
USER_CHARGES


@<TRIPOS>ATOM
  1 H       -0.1840    -0.3340    -0.0270 H     1 <1>   0.1770 
  2 C        0.5630     0.4250     0.0030 C.1   1 <1>  -0.1770 
  3 C        1.4050     1.2810     0.0240 C.1   1 <1>  -0.2000 
  4 C        2.4290     2.3320     0.0490 C.3   1 <1>   0.6180 
  5 H        2.1500     3.1100     0.7680 H     1 <1>   0.0000 
  6 O        2.5070     2.9380    -1.2320 O.3   1 <1>  -0.6800 
  7 H        3.1670     3.6450    -1.1580 H     1 <1>   0.4000 
  8 C        3.7530     1.7390     0.4510 C.2   1 <1>  -0.2880 
  9 H        3.7920     1.3840     1.4800 H     1 <1>   0.1500 
 10 C        4.8510     1.6090    -0.3170 C.2   1 <1>  -0.2880 
 11 H        4.8300     1.9360    -1.3560 H     1 <1>   0.1500 
 12 C        6.1380     0.9900     0.1450 C.3   1 <1>   0.4180 
 13 H        6.0450     0.6030     1.1660 H     1 <1>   0.0000 
 14 O        6.4110    -0.1110    -0.7120 O.3   1 <1>  -0.6800 
 15 H        5.6030    -0.6510    -0.7440 H     1 <1>   0.4000 
 16 C        7.2940     1.9910     0.0730 C.3   1 <1>   0.0000 
 17 H        7.0550     2.8840     0.6640 H     1 <1>   0.0000 
 18 H        7.4500     2.3140    -0.9640 H     1 <1>   0.0000 
 19 C        8.6010     1.3980     0.5840 C.3   1 <1>   0.0000 
 20 H        8.9140     0.5420    -0.0220 H     1 <1>   0.0000 
 21 H        8.5010     1.0670     1.6230 H     1 <1>   0.0000 
 22 H        9.3970     2.1490     0.5420 H     1 <1>   0.0000 
@<TRIPOS>BOND
  1   1   2  1   
  2   2   3  3   
  3   3   4  1   
  4   4   5  1   
  5   4   6  1   
  6   4   8  1   
  7   6   7  1   
  8   8   9  1   
  9   8  10  2   
 10  10  11  1   
 11  10  12  1   
 12  12  13  1   
 13  12  14  1   
 14  12  16  1   
 15  14  15  1   
 16  16  17  1   
 17  16  18  1   
 18  16  19  1   
 19  19  20  1   
 20  19  21  1   
 21  19  22  1   
@<TRIPOS>SUBSTRUCTURE
  1 ****  10 GROUP 4 **** **** 0

# MOE 2022.02 (io_trps.svl 2020.11)

@<TRIPOS>MOLECULE
UNP025
22 21 1 0 0 
SMALL
USER_CHARGES


@<TRIPOS>ATOM
  1 H       -0.0320     1.2170    -1.3250 H     1 <1>   0.0000 
  2 C        0.2040     0.6730    -0.4050 C.3   1 <1>   0.0000 
  3 H       -0.6820     0.6650     0.2370 H     1 <1>   0.0000 
  4 H        0.4390    -0.3570    -0.6940 H     1 <1>   0.0000 
  5 C        1.3810     1.3110     0.3060 C.3   1 <1>   0.2800 
  6 H        1.1340     2.3420     0.5770 H     1 <1>   0.0000 
  7 H        1.6130     0.7460     1.2160 H     1 <1>   0.0000 
  8 O        2.5010     1.2830    -0.5710 O.3   1 <1>  -0.5600 
  9 C        3.6610     1.9070    -0.0180 C.3   1 <1>   0.5600 
 10 H        3.6670     1.7790     1.0720 H     1 <1>   0.0000 
 11 O        4.8110     1.2790    -0.5850 O.3   1 <1>  -0.5600 
 12 C        5.9480     1.3200     0.2700 C.3   1 <1>   0.2800 
 13 H        5.7310     0.7810     1.1990 H     1 <1>   0.0000 
 14 H        6.2070     2.3560     0.5090 H     1 <1>   0.0000 
 15 C        7.1070     0.6560    -0.4460 C.3   1 <1>   0.0000 
 16 H        7.3260     1.1720    -1.3870 H     1 <1>   0.0000 
 17 H        6.8610    -0.3800    -0.7020 H     1 <1>   0.0000 
 18 H        8.0060     0.6610     0.1770 H     1 <1>   0.0000 
 19 C        3.6590     3.3840    -0.3930 C.3   1 <1>   0.0000 
 20 H        4.5480     3.8950    -0.0140 H     1 <1>   0.0000 
 21 H        3.6540     3.5010    -1.4830 H     1 <1>   0.0000 
 22 H        2.7710     3.8940    -0.0080 H     1 <1>   0.0000 
@<TRIPOS>BOND
  1   1   2  1   
  2   2   3  1   
  3   2   4  1   
  4   2   5  1   
  5   5   6  1   
  6   5   7  1   
  7   5   8  1   
  8   8   9  1   
  9   9  10  1   
 10   9  11  1   
 11   9  19  1   
 12  11  12  1   
 13  12  13  1   
 14  12  14  1   
 15  12  15  1   
 16  15  16  1   
 17  15  17  1   
 18  15  18  1   
 19  19  20  1   
 20  19  21  1   
 21  19  22  1   
@<TRIPOS>SUBSTRUCTURE
  1 ****   9 GROUP 4 **** **** 0

# MOE 2022.02 (io_trps.svl 2020.11)

@<TRIPOS>MOLECULE
UNP026
11 10 1 0 0 
SMALL
USER_CHARGES


@<TRIPOS>ATOM
  1 H        0.3330     1.4890     0.9630 H     1 <1>   0.0600 
  2 C        0.2350     0.5940     0.3270 C.2   1 <1>   0.4490 
  3 O       -0.8580     0.2640    -0.1280 O.2   1 <1>  -0.5700 
  4 C        1.4900    -0.2270     0.1610 C.3   1 <1>   0.3410 
  5 H        1.3620    -0.9120    -0.6830 H     1 <1>   0.0000 
  6 H        1.6590    -0.7860     1.0870 H     1 <1>   0.0000 
  7 O        2.5770     0.6600    -0.0740 O.3   1 <1>  -0.5600 
  8 C        3.7890    -0.0500    -0.2940 C.3   1 <1>   0.2800 
  9 H        3.7050    -0.6880    -1.1780 H     1 <1>   0.0000 
 10 H        4.0440    -0.6520     0.5840 H     1 <1>   0.0000 
 11 H        4.5880     0.6780    -0.4620 H     1 <1>   0.0000 
@<TRIPOS>BOND
  1   1   2  1   
  2   2   3  2   
  3   2   4  1   
  4   4   5  1   
  5   4   6  1   
  6   4   7  1   
  7   7   8  1   
  8   8   9  1   
  9   8  10  1   
 10   8  11  1   
@<TRIPOS>SUBSTRUCTURE
  1 ****   4 GROUP 4 **** **** 0

# MOE 2022.02 (io_trps.svl 2020.11)

@<TRIPOS>MOLECULE
UNP027
12 11 1 0 0 
SMALL
USER_CHARGES


@<TRIPOS>ATOM
  1 H       -0.2700    -0.1770     0.6440 H     1 <1>   0.0000 
  2 C       -0.0690    -0.3660    -0.4140 C.3   1 <1>   0.2300 
  3 H        0.0410     0.5840    -0.9430 H     1 <1>   0.0000 
  4 H       -0.9200    -0.9050    -0.8390 H     1 <1>   0.0000 
  5 S        1.4240    -1.3700    -0.6020 S.3   1 <1>  -0.4600 
  6 C        2.6140    -0.2330     0.1720 C.3   1 <1>   0.2300 
  7 H        2.6160     0.7150    -0.3750 H     1 <1>   0.0000 
  8 H        2.3100    -0.0400     1.2050 H     1 <1>   0.0000 
  9 C        4.0050    -0.8400     0.1500 C.3   1 <1>   0.0000 
 10 H        4.0410    -1.7830     0.7060 H     1 <1>   0.0000 
 11 H        4.3480    -1.0250    -0.8730 H     1 <1>   0.0000 
 12 H        4.7180    -0.1530     0.6180 H     1 <1>   0.0000 
@<TRIPOS>BOND
  1   1   2  1   
  2   2   3  1   
  3   2   4  1   
  4   2   5  1   
  5   5   6  1   
  6   6   7  1   
  7   6   8  1   
  8   6   9  1   
  9   9  10  1   
 10   9  11  1   
 11   9  12  1   
@<TRIPOS>SUBSTRUCTURE
  1 ****   6 GROUP 4 **** **** 0

# MOE 2022.02 (io_trps.svl 2020.11)

@<TRIPOS>MOLECULE
UNP028
18 19 1 0 0 
SMALL
USER_CHARGES


@<TRIPOS>ATOM
  1 H       -2.8140     4.3060    -0.0040 H     1 <1>   0.1500 
  2 C       -1.8660     3.7720    -0.0040 C.ar  1 <1>  -0.1500 
  3 C       -1.8550     2.3750    -0.0120 C.ar  1 <1>  -0.1500 
  4 H       -2.7940     1.8260    -0.0170 H     1 <1>   0.1500 
  5 C       -0.6430     1.6830    -0.0120 C.ar  1 <1>  -0.1500 
  6 H       -0.6470     0.5980    -0.0180 H     1 <1>   0.1500 
  7 C        0.5540     2.3970    -0.0050 C.ar  1 <1>   0.1170 
  8 C        0.5530     3.8000     0.0030 C.ar  1 <1>   0.0280 
  9 C       -0.6650     4.4850     0.0030 C.ar  1 <1>  -0.1500 
 10 H       -0.6920     5.5720     0.0090 H     1 <1>   0.1500 
 11 C        1.8310     4.5110     0.0100 C.2   1 <1>  -0.1780 
 12 H        1.8290     5.5950     0.0160 H     1 <1>   0.1500 
 13 C        2.9810     3.8230     0.0090 C.2   1 <1>  -0.1360 
 14 H        3.9480     4.3090     0.0140 H     1 <1>   0.1500 
 15 C        2.9930     2.3390     0.0000 C.2   1 <1>   0.6160 
 16 O        4.0520     1.7210    -0.0010 O.2   1 <1>  -0.5700 
 17 N        1.7770     1.7120    -0.0060 N.am  1 <1>  -0.5470 
 18 H        1.7970     0.7020    -0.0110 H     1 <1>   0.3700 
@<TRIPOS>BOND
  1   1   2  1   
  2   2   3  ar  
  3   2   9  ar  
  4   3   4  1   
  5   3   5  ar  
  6   5   6  1   
  7   5   7  ar  
  8   7   8  ar  
  9   7  17  1   
 10   8   9  ar  
 11   8  11  1   
 12   9  10  1   
 13  11  12  1   
 14  11  13  2   
 15  13  14  1   
 16  13  15  1   
 17  15  16  2   
 18  15  17  am  
 19  17  18  1   
@<TRIPOS>SUBSTRUCTURE
  1 ****   7 GROUP 4 **** **** 0

# MOE 2022.02 (io_trps.svl 2020.11)

@<TRIPOS>MOLECULE
UNP029
20 20 1 0 0 
SMALL
USER_CHARGES


@<TRIPOS>ATOM
  1 H       -0.7160     2.8980     0.2670 H     1 <1>   0.1500 
  2 C       -0.4280     1.8590     0.1560 C.2   1 <1>  -0.1500 
  3 C       -1.2740     0.7390     0.0970 C.2   1 <1>   0.0570 
  4 BR      -3.1410     0.8130     0.2010 Br    1 <1>  -0.0570 
  5 C       -0.4980    -0.3790    -0.0450 C.2   1 <1>  -0.3020 
  6 H       -0.7530    -1.4270    -0.1280 H     1 <1>   0.1500 
  7 N        0.8090     0.0360    -0.0750 N.pl3 1 <1>   0.0330 
  8 H        1.5980    -0.5870    -0.1730 H     1 <1>   0.2700 
  9 C        0.8840     1.4100     0.0480 C.2   1 <1>  -0.2370 
 10 C        2.0810     2.2310     0.0620 C.2   1 <1>   0.7150 
 11 O        2.0420     3.4530     0.1760 O.2   1 <1>  -0.5700 
 12 N        3.2790     1.5560    -0.0620 N.am  1 <1>  -0.7300 
 13 H        3.3070     0.5560    -0.1600 H     1 <1>   0.3700 
 14 C        4.5330     2.2810    -0.0580 C.3   1 <1>   0.3000 
 15 H        4.5380     2.9540    -0.9230 H     1 <1>   0.0000 
 16 H        4.5740     2.8960     0.8480 H     1 <1>   0.0000 
 17 C        5.7240     1.3440    -0.1120 C.3   1 <1>   0.0000 
 18 H        5.6970     0.7290    -1.0170 H     1 <1>   0.0000 
 19 H        5.7300     0.6690     0.7510 H     1 <1>   0.0000 
 20 H        6.6580     1.9130    -0.1100 H     1 <1>   0.0000 
@<TRIPOS>BOND
  1   1   2  1   
  2   2   3  1   
  3   2   9  2   
  4   3   4  1   
  5   3   5  2   
  6   5   6  1   
  7   5   7  1   
  8   7   8  1   
  9   7   9  1   
 10   9  10  1   
 11  10  11  2   
 12  10  12  am  
 13  12  13  1   
 14  12  14  1   
 15  14  15  1   
 16  14  16  1   
 17  14  17  1   
 18  17  18  1   
 19  17  19  1   
 20  17  20  1   
@<TRIPOS>SUBSTRUCTURE
  1 ****   9 GROUP 4 **** **** 0

# MOE 2022.02 (io_trps.svl 2020.11)

@<TRIPOS>MOLECULE
UNP030
39 40 1 0 0 
SMALL
USER_CHARGES


@<TRIPOS>ATOM
  1 H        2.4720    -2.5410     1.0890 H     1 <1>   0.4000 
  2 O        1.7220    -1.9450     1.3030 O.3   1 <1>  -0.6800 
  3 C        1.9960    -0.7380     0.5680 C.3   1 <1>   0.4610 
  4 H        2.1140     0.0600     1.3090 H     1 <1>   0.0000 
  5 C        3.2700    -0.8680    -0.2020 C.2   1 <1>   0.0460 
  6 N        3.9440    -2.0750    -0.2440 N.2   1 <1>  -0.5650 
  7 C        5.0040    -1.8180    -0.9900 C.2   1 <1>   0.2980 
  8 C        6.1040    -2.7320    -1.3960 C.3   1 <1>   0.3600 
  9 H        5.6800    -3.7130    -1.6390 H     1 <1>   0.0000 
 10 H        6.5760    -2.3580    -2.3120 H     1 <1>   0.0000 
 11 C        7.1160    -2.8930    -0.3280 C.2   1 <1>  -0.0400 
 12 O        8.4230    -2.6350    -0.6460 O.3   1 <1>  -0.2800 
 13 C        9.0930    -2.8740     0.5150 C.2   1 <1>   0.3280 
 14 H       10.1640    -2.7260     0.4970 H     1 <1>   0.1500 
 15 N        8.3440    -3.2600     1.5230 N.2   1 <1>  -0.5650 
 16 C        7.0790    -3.2750     0.9940 C.2   1 <1>   0.0770 
 17 H        6.2170    -3.5550     1.5850 H     1 <1>   0.1500 
 18 O        5.0760    -0.5260    -1.4390 O.3   1 <1>  -0.2800 
 19 C        3.9680     0.0720    -0.9230 C.2   1 <1>  -0.0100 
 20 H        3.8310     1.1180    -1.1560 H     1 <1>   0.1500 
 21 C        0.7960    -0.4330    -0.3370 C.3   1 <1>   0.0000 
 22 H        0.6810    -1.2480    -1.0650 H     1 <1>   0.0000 
 23 H        1.0020     0.4860    -0.8990 H     1 <1>   0.0000 
 24 C       -0.5170    -0.3010     0.4590 C.3   1 <1>   0.2800 
 25 H       -0.3510     0.3770     1.3050 H     1 <1>   0.0000 
 26 O       -0.8870    -1.5770     0.9810 O.3   1 <1>  -0.6800 
 27 H       -0.0700    -1.9770     1.3540 H     1 <1>   0.4000 
 28 C       -1.6530     0.2650    -0.4170 C.3   1 <1>   0.2800 
 29 H       -1.8530    -0.4100    -1.2580 H     1 <1>   0.0000 
 30 O       -1.2280     1.5200    -0.9860 O.3   1 <1>  -0.6800 
 31 H       -2.0580     1.9130    -1.3310 H     1 <1>   0.4000 
 32 C       -2.9740     0.5360     0.3390 C.3   1 <1>   0.2800 
 33 H       -2.7850     1.1880     1.1990 H     1 <1>   0.0000 
 34 O       -3.8180     1.2900    -0.5580 O.3   1 <1>  -0.6800 
 35 H       -4.6510     1.4670    -0.0850 H     1 <1>   0.4000 
 36 C       -3.7330    -0.7090     0.7740 C.3   1 <1>   0.0000 
 37 H       -4.7350    -0.4440     1.1290 H     1 <1>   0.0000 
 38 H       -3.8710    -1.3970    -0.0670 H     1 <1>   0.0000 
 39 H       -3.2250    -1.2380     1.5840 H     1 <1>   0.0000 
@<TRIPOS>BOND
  1   1   2  1   
  2   2   3  1   
  3   3   4  1   
  4   3   5  1   
  5   3  21  1   
  6   5   6  1   
  7   5  19  2   
  8   6   7  2   
  9   7   8  1   
 10   7  18  1   
 11   8   9  1   
 12   8  10  1   
 13   8  11  1   
 14  11  12  1   
 15  11  16  2   
 16  12  13  1   
 17  13  14  1   
 18  13  15  2   
 19  15  16  1   
 20  16  17  1   
 21  18  19  1   
 22  19  20  1   
 23  21  22  1   
 24  21  23  1   
 25  21  24  1   
 26  24  25  1   
 27  24  26  1   
 28  24  28  1   
 29  26  27  1   
 30  28  29  1   
 31  28  30  1   
 32  28  32  1   
 33  30  31  1   
 34  32  33  1   
 35  32  34  1   
 36  32  36  1   
 37  34  35  1   
 38  36  37  1   
 39  36  38  1   
 40  36  39  1   
@<TRIPOS>SUBSTRUCTURE
  1 ****   5 GROUP 4 **** **** 0

# MOE 2022.02 (io_trps.svl 2020.11)

@<TRIPOS>MOLECULE
UNP031
9 9 1 0 0 
SMALL
USER_CHARGES


@<TRIPOS>ATOM
  1 H        1.7230     1.8640    -0.0150 H     1 <1>   0.1500 
  2 C        0.6630     1.6540    -0.0090 C.2   1 <1>  -0.0100 
  3 O        0.3250     0.3380    -0.0170 O.3   1 <1>  -0.2800 
  4 C       -1.0320     0.2810    -0.0080 C.2   1 <1>  -0.0100 
  5 H       -1.4570    -0.7130    -0.0130 H     1 <1>   0.1500 
  6 C       -1.5660     1.5480     0.0060 C.2   1 <1>  -0.1500 
  7 H       -2.6180     1.7960     0.0150 H     1 <1>   0.1500 
  8 C       -0.4660     2.4390     0.0050 C.2   1 <1>  -0.1500 
  9 H       -0.4910     3.5200     0.0130 H     1 <1>   0.1500 
@<TRIPOS>BOND
  1   1   2  1   
  2   2   3  1   
  3   2   8  2   
  4   3   4  1   
  5   4   5  1   
  6   4   6  2   
  7   6   7  1   
  8   6   8  1   
  9   8   9  1   
@<TRIPOS>SUBSTRUCTURE
  1 ****   4 GROUP 4 **** **** 0

# MOE 2022.02 (io_trps.svl 2020.11)

@<TRIPOS>MOLECULE
UNP032
13 12 1 0 0 
SMALL
USER_CHARGES


@<TRIPOS>ATOM
  1 H        2.4820     1.5300    -0.7510 H     1 <1>   0.4000 
  2 N        1.4970     1.2330    -0.6340 N.2   1 <1>  -0.8500 
  3 C        1.4930     0.0300    -0.1500 C.2   1 <1>   0.3890 
  4 C        2.8010    -0.6730     0.1330 C.2   1 <1>   0.5100 
  5 H        2.7110    -1.6930     0.5380 H     1 <1>   0.0600 
  6 O        3.8580    -0.1030    -0.0900 O.2   1 <1>  -0.5700 
  7 C        0.2350    -0.7400     0.1580 C.3   1 <1>   0.0610 
  8 H        0.2550    -1.0120     1.2190 H     1 <1>   0.0000 
  9 H        0.2530    -1.6670    -0.4250 H     1 <1>   0.0000 
 10 C       -1.0400     0.0270    -0.1460 C.3   1 <1>   0.0000 
 11 H       -1.0920     0.9530     0.4370 H     1 <1>   0.0000 
 12 H       -1.9160    -0.5800     0.1000 H     1 <1>   0.0000 
 13 H       -1.0970     0.2930    -1.2070 H     1 <1>   0.0000 
@<TRIPOS>BOND
  1   1   2  1   
  2   2   3  2   
  3   3   4  1   
  4   3   7  1   
  5   4   5  1   
  6   4   6  2   
  7   7   8  1   
  8   7   9  1   
  9   7  10  1   
 10  10  11  1   
 11  10  12  1   
 12  10  13  1   
@<TRIPOS>SUBSTRUCTURE
  1 ****   3 GROUP 4 **** **** 0

# MOE 2022.02 (io_trps.svl 2020.11)

@<TRIPOS>MOLECULE
UNP033
10 9 1 0 0 
SMALL
USER_CHARGES


@<TRIPOS>ATOM
  1 H        7.7630    -0.4420    -0.0060 H     1 <1>   0.1770 
  2 C        6.7020    -0.3620    -0.0040 C.1   1 <1>  -0.1770 
  3 C        5.5050    -0.2710    -0.0020 C.1   1 <1>   0.0000 
  4 C        4.0770    -0.1600     0.0020 C.1   1 <1>   0.0000 
  5 C        2.8790    -0.0670     0.0070 C.1   1 <1>  -0.0650 
  6 C        1.4630     0.0370     0.0140 C.2   1 <1>  -0.0850 
  7 H        0.8830    -0.8810     0.0290 H     1 <1>   0.1500 
  8 C        0.8470     1.2230     0.0020 C.2   1 <1>  -0.3000 
  9 H        1.4010     2.1560    -0.0140 H     1 <1>   0.1500 
 10 H       -0.2370     1.2830     0.0070 H     1 <1>   0.1500 
@<TRIPOS>BOND
  1   1   2  1   
  2   2   3  3   
  3   3   4  1   
  4   4   5  3   
  5   5   6  1   
  6   6   7  1   
  7   6   8  2   
  8   8   9  1   
  9   8  10  1   
@<TRIPOS>SUBSTRUCTURE
  1 ****   4 GROUP 4 **** **** 0

# MOE 2022.02 (io_trps.svl 2020.11)

@<TRIPOS>MOLECULE
UNP034
16 16 1 0 0 
SMALL
USER_CHARGES


@<TRIPOS>ATOM
  1 H       -1.5030    -1.6330     0.1230 H     1 <1>   0.5000 
  2 O       -0.5240    -1.5880     0.1090 O.3   1 <1>  -0.6500 
  3 C       -0.1710    -2.8890     0.0300 C.2   1 <1>   0.8050 
  4 O       -1.0180    -3.7670    -0.0050 O.2   1 <1>  -0.5700 
  5 C        1.2560    -3.0310     0.0000 C.2   1 <1>  -0.2370 
  6 C        2.0130    -4.1860    -0.0770 C.2   1 <1>  -0.1500 
  7 H        1.6140    -5.1930    -0.1270 H     1 <1>   0.1500 
  8 C        3.3790    -3.8140    -0.0770 C.2   1 <1>  -0.1500 
  9 H        4.2310    -4.4810    -0.1270 H     1 <1>   0.1500 
 10 C        3.4450    -2.4340     0.0000 C.2   1 <1>  -0.2370 
 11 C        4.5700    -1.5440     0.0330 C.2   1 <1>   0.8050 
 12 O        4.5390    -0.3260     0.1020 O.2   1 <1>  -0.5700 
 13 O        5.7400    -2.2120    -0.0210 O.3   1 <1>  -0.6500 
 14 H        6.4100    -1.5000     0.0090 H     1 <1>   0.5000 
 15 N        2.1460    -1.9820     0.0450 N.pl3 1 <1>   0.0330 
 16 H        1.8740    -1.0070     0.1030 H     1 <1>   0.2700 
@<TRIPOS>BOND
  1   1   2  1   
  2   2   3  1   
  3   3   4  2   
  4   3   5  1   
  5   5   6  2   
  6   5  15  1   
  7   6   7  1   
  8   6   8  1   
  9   8   9  1   
 10   8  10  2   
 11  10  11  1   
 12  10  15  1   
 13  11  12  2   
 14  11  13  1   
 15  13  14  1   
 16  15  16  1   
@<TRIPOS>SUBSTRUCTURE
  1 ****  15 GROUP 4 **** **** 0

# MOE 2022.02 (io_trps.svl 2020.11)

@<TRIPOS>MOLECULE
UNP035
9 8 1 0 0 
SMALL
USER_CHARGES


@<TRIPOS>ATOM
  1 H       -0.0020    -1.9680     0.3000 H     1 <1>   0.0000 
  2 C       -0.1600    -0.9660    -0.1130 C.3   1 <1>   0.0000 
  3 H       -0.4570    -1.0800    -1.1620 H     1 <1>   0.0000 
  4 H       -0.9920    -0.5030     0.4270 H     1 <1>   0.0000 
  5 C        1.0920    -0.1160     0.0140 C.3   1 <1>   0.2000 
  6 H        1.3470     0.0010     1.0730 H     1 <1>   0.0000 
  7 H        0.8930     0.8860    -0.3820 H     1 <1>   0.0000 
  8 C        2.2210    -0.7190    -0.7050 C.1   1 <1>   0.3570 
  9 N        3.1140    -1.1930    -1.2730 N.1   1 <1>  -0.5570 
@<TRIPOS>BOND
  1   1   2  1   
  2   2   3  1   
  3   2   4  1   
  4   2   5  1   
  5   5   6  1   
  6   5   7  1   
  7   5   8  1   
  8   8   9  3   
@<TRIPOS>SUBSTRUCTURE
  1 ****   8 GROUP 4 **** **** 0

# MOE 2022.02 (io_trps.svl 2020.11)

@<TRIPOS>MOLECULE
UNP036
27 28 1 0 0 
SMALL
USER_CHARGES


@<TRIPOS>ATOM
  1 H        4.4850    -0.0650    -2.2270 H     1 <1>   0.0600 
  2 C        3.9290     0.7450    -1.7250 C.2   1 <1>   0.4490 
  3 O        4.5190     1.7550    -1.3540 O.2   1 <1>  -0.5700 
  4 C        2.4300     0.5310    -1.6270 C.3   1 <1>   0.0610 
  5 H        2.0820     0.6470    -2.6630 H     1 <1>   0.0000 
  6 C        1.6960     1.5890    -0.7720 C.3   1 <1>   0.0000 
  7 H        2.2930     2.4930    -0.6100 H     1 <1>   0.0000 
  8 H        0.8320     1.9310    -1.3610 H     1 <1>   0.0000 
  9 C        1.1410     1.0830     0.5730 C.3   1 <1>   0.0000 
 10 H        0.1700     1.5580     0.7570 H     1 <1>   0.0000 
 11 H        1.7900     1.3980     1.3980 H     1 <1>   0.0000 
 12 C        0.9790    -0.4420     0.5770 C.3   1 <1>   0.0000 
 13 H        0.3660    -0.7880     1.4160 H     1 <1>   0.0000 
 14 C        0.5400    -0.9620    -0.8240 C.3   1 <1>   0.0000 
 15 H        0.1000    -1.9650    -0.8370 H     1 <1>   0.0000 
 16 H       -0.1310    -0.3210    -1.4050 H     1 <1>   0.0000 
 17 C        2.0630    -0.8930    -1.1670 C.3   1 <1>   0.0000 
 18 H        2.4010    -1.6530    -1.8790 H     1 <1>   0.0000 
 19 C        2.3160    -1.2530     0.3570 C.3   1 <1>   0.0000 
 20 C        3.5740    -0.7110     1.0420 C.3   1 <1>   0.0000 
 21 H        4.4700    -1.2060     0.6510 H     1 <1>   0.0000 
 22 H        3.5340    -0.8940     2.1210 H     1 <1>   0.0000 
 23 H        3.7140     0.3630     0.9110 H     1 <1>   0.0000 
 24 C        2.2260    -2.7590     0.6770 C.3   1 <1>   0.0000 
 25 H        1.3540    -3.2480     0.2380 H     1 <1>   0.0000 
 26 H        2.1730    -2.9190     1.7600 H     1 <1>   0.0000 
 27 H        3.1120    -3.2830     0.3010 H     1 <1>   0.0000 
@<TRIPOS>BOND
  1   1   2  1   
  2   2   3  2   
  3   2   4  1   
  4   4   5  1   
  5   4   6  1   
  6   4  17  1   
  7   6   7  1   
  8   6   8  1   
  9   6   9  1   
 10   9  10  1   
 11   9  11  1   
 12   9  12  1   
 13  12  13  1   
 14  12  14  1   
 15  12  19  1   
 16  14  15  1   
 17  14  16  1   
 18  14  17  1   
 19  17  18  1   
 20  17  19  1   
 21  19  20  1   
 22  19  24  1   
 23  20  21  1   
 24  20  22  1   
 25  20  23  1   
 26  24  25  1   
 27  24  26  1   
 28  24  27  1   
@<TRIPOS>SUBSTRUCTURE
  1 ****  17 GROUP 4 **** **** 0

# MOE 2022.02 (io_trps.svl 2020.11)

@<TRIPOS>MOLECULE
UNP037
41 40 1 0 0 
SMALL
USER_CHARGES


@<TRIPOS>ATOM
  1 H       14.6670     3.6510    -0.0970 H     1 <1>   0.4000 
  2 O       13.9010     3.1620     0.2550 O.3   1 <1>  -0.6800 
  3 C       12.7330     3.8490    -0.2120 C.3   1 <1>   0.2800 
  4 H       12.8080     4.9050     0.0640 H     1 <1>   0.0000 
  5 H       12.7120     3.7530    -1.3020 H     1 <1>   0.0000 
  6 C       11.5060     3.1830     0.4220 C.3   1 <1>   0.2800 
  7 H       11.5570     3.3210     1.5090 H     1 <1>   0.0000 
  8 O       11.5850     1.7660     0.1830 O.3   1 <1>  -0.6800 
  9 H       12.5350     1.5570     0.3230 H     1 <1>   0.4000 
 10 C       10.1850     3.7610    -0.1230 C.3   1 <1>   0.2800 
 11 H       10.1690     3.6290    -1.2130 H     1 <1>   0.0000 
 12 O       10.1690     5.1640     0.1560 O.3   1 <1>  -0.6800 
 13 H        9.2310     5.4560     0.0970 H     1 <1>   0.4000 
 14 C        8.9450     3.0310     0.4700 C.3   1 <1>   0.2800 
 15 H        8.9630     3.1610     1.5590 H     1 <1>   0.0000 
 16 O        8.9650     1.6280     0.1870 O.3   1 <1>  -0.6800 
 17 H        9.9040     1.3360     0.2410 H     1 <1>   0.4000 
 18 C        7.6150     3.6000    -0.0710 C.3   1 <1>   0.2800 
 19 H        7.5450     3.4220    -1.1510 H     1 <1>   0.0000 
 20 O        7.5540     5.0250     0.1170 O.3   1 <1>  -0.6800 
 21 H        6.6370     5.2730    -0.1230 H     1 <1>   0.4000 
 22 C        6.4030     2.9530     0.6140 C.3   1 <1>   0.2800 
 23 H        6.4360     3.1400     1.6930 H     1 <1>   0.0000 
 24 H        6.3680     1.8760     0.4160 H     1 <1>   0.0000 
 25 O        5.2240     3.5850     0.0810 O.3   1 <1>  -0.4300 
 26 C        4.0530     3.0860     0.5620 C.2   1 <1>   0.7060 
 27 O        3.9440     2.1920     1.3870 O.2   1 <1>  -0.5700 
 28 C        2.9030     3.8510    -0.0540 C.2   1 <1>   0.1850 
 29 N        3.0510     5.2130    -0.2430 N.2   1 <1>  -0.6210 
 30 C        2.9730     5.9070     0.8430 C.2   1 <1>   0.3300 
 31 H        3.0800     7.0030     0.7940 H     1 <1>   0.0600 
 32 H        2.7960     5.4730     1.8440 H     1 <1>   0.0600 
 33 C        1.7810     3.2000    -0.4410 C.2   1 <1>  -0.2760 
 34 C        1.5730     1.7090    -0.3490 C.3   1 <1>   0.1380 
 35 H        1.0660     1.3400    -1.2480 H     1 <1>   0.0000 
 36 H        2.5040     1.1420    -0.2790 H     1 <1>   0.0000 
 37 H        0.9470     1.4680     0.5170 H     1 <1>   0.0000 
 38 C        0.5990     3.9210    -1.0430 C.3   1 <1>   0.1380 
 39 H        0.7240     5.0070    -1.0870 H     1 <1>   0.0000 
 40 H        0.4250     3.5710    -2.0660 H     1 <1>   0.0000 
 41 H       -0.3010     3.7220    -0.4520 H     1 <1>   0.0000 
@<TRIPOS>BOND
  1   1   2  1   
  2   2   3  1   
  3   3   4  1   
  4   3   5  1   
  5   3   6  1   
  6   6   7  1   
  7   6   8  1   
  8   6  10  1   
  9   8   9  1   
 10  10  11  1   
 11  10  12  1   
 12  10  14  1   
 13  12  13  1   
 14  14  15  1   
 15  14  16  1   
 16  14  18  1   
 17  16  17  1   
 18  18  19  1   
 19  18  20  1   
 20  18  22  1   
 21  20  21  1   
 22  22  23  1   
 23  22  24  1   
 24  22  25  1   
 25  25  26  1   
 26  26  27  2   
 27  26  28  1   
 28  28  29  1   
 29  28  33  2   
 30  29  30  2   
 31  30  31  1   
 32  30  32  1   
 33  33  34  1   
 34  33  38  1   
 35  34  35  1   
 36  34  36  1   
 37  34  37  1   
 38  38  39  1   
 39  38  40  1   
 40  38  41  1   
@<TRIPOS>SUBSTRUCTURE
  1 ****  22 GROUP 4 **** **** 0

# MOE 2022.02 (io_trps.svl 2020.11)

@<TRIPOS>MOLECULE
UNP038
17 16 1 0 0 
SMALL
USER_CHARGES


@<TRIPOS>ATOM
  1 H        1.4390     2.2420    -0.5290 H     1 <1>   0.0600 
  2 C        0.7840     1.3810    -0.3350 C.2   1 <1>   0.4960 
  3 O       -0.4320     1.5350    -0.2490 O.2   1 <1>  -0.5700 
  4 C        1.4710     0.0430    -0.1950 C.2   1 <1>   0.1850 
  5 N        0.7230    -1.1030    -0.3660 N.2   1 <1>  -0.6210 
  6 C       -0.2450    -1.2640     0.4730 C.2   1 <1>   0.3300 
  7 H       -0.4780    -0.5690     1.2990 H     1 <1>   0.0600 
  8 H       -0.8920    -2.1520     0.3850 H     1 <1>   0.0600 
  9 C        2.8100    -0.0200    -0.0060 C.2   1 <1>  -0.2760 
 10 C        3.7240     1.1570     0.2180 C.3   1 <1>   0.1380 
 11 H        4.2580     1.4020    -0.7060 H     1 <1>   0.0000 
 12 H        4.4670     0.9190     0.9880 H     1 <1>   0.0000 
 13 H        3.2050     2.0500     0.5730 H     1 <1>   0.0000 
 14 C        3.5480    -1.3400     0.0180 C.3   1 <1>   0.1380 
 15 H        2.9110    -2.2050    -0.1900 H     1 <1>   0.0000 
 16 H        4.0040    -1.4980     1.0020 H     1 <1>   0.0000 
 17 H        4.3430    -1.3360    -0.7350 H     1 <1>   0.0000 
@<TRIPOS>BOND
  1   1   2  1   
  2   2   3  2   
  3   2   4  1   
  4   4   5  1   
  5   4   9  2   
  6   5   6  2   
  7   6   7  1   
  8   6   8  1   
  9   9  10  1   
 10   9  14  1   
 11  10  11  1   
 12  10  12  1   
 13  10  13  1   
 14  14  15  1   
 15  14  16  1   
 16  14  17  1   
@<TRIPOS>SUBSTRUCTURE
  1 ****   4 GROUP 4 **** **** 0

# MOE 2022.02 (io_trps.svl 2020.11)

@<TRIPOS>MOLECULE
UNP039
10 9 1 0 0 
SMALL
USER_CHARGES


@<TRIPOS>ATOM
  1 H        0.3080     1.6770    -0.7540 H     1 <1>   0.0600 
  2 C        0.1900     0.7210    -0.2150 C.2   1 <1>   0.4490 
  3 O       -0.9100     0.3750     0.2120 O.2   1 <1>  -0.5700 
  4 C        1.4180    -0.1550    -0.1560 C.3   1 <1>   0.3070 
  5 H        1.5420    -0.6240    -1.1370 H     1 <1>   0.0000 
  6 H        1.2660    -0.9200     0.6130 H     1 <1>   0.0000 
  7 N        2.5680     0.7100     0.1400 N.2   1 <1>  -0.6960 
  8 C        3.6040     0.0550     0.5280 C.2   1 <1>   0.3300 
  9 H        3.6340    -1.0450     0.6250 H     1 <1>   0.0600 
 10 H        4.5290     0.5960     0.7830 H     1 <1>   0.0600 
@<TRIPOS>BOND
  1   1   2  1   
  2   2   3  2   
  3   2   4  1   
  4   4   5  1   
  5   4   6  1   
  6   4   7  1   
  7   7   8  2   
  8   8   9  1   
  9   8  10  1   
@<TRIPOS>SUBSTRUCTURE
  1 ****   4 GROUP 4 **** **** 0

# MOE 2022.02 (io_trps.svl 2020.11)

@<TRIPOS>MOLECULE
UNP040
15 15 1 0 0 
SMALL
USER_CHARGES


@<TRIPOS>ATOM
  1 H       -0.0570    -1.3270     1.1820 H     1 <1>   0.4000 
  2 O        0.7610    -1.7500     0.8690 O.3   1 <1>  -0.6800 
  3 C        1.4640    -0.7990     0.0980 C.3   1 <1>   0.4180 
  4 H        0.8740    -0.5310    -0.7850 H     1 <1>   0.0000 
  5 C        1.7870     0.4020     0.9200 C.2   1 <1>  -0.2880 
  6 H        1.0630     0.9360     1.5200 H     1 <1>   0.1500 
  7 C        3.0710     0.7550     0.7920 C.2   1 <1>  -0.2880 
  8 H        3.5220     1.6110     1.2780 H     1 <1>   0.1500 
  9 C        3.8090    -0.1620    -0.1400 C.3   1 <1>   0.3380 
 10 H        3.9460     0.3400    -1.1050 H     1 <1>   0.0000 
 11 C        5.1110    -0.5690     0.4060 C.1   1 <1>   0.3570 
 12 N        6.1490    -0.8820     0.8200 N.1   1 <1>  -0.5570 
 13 C        2.8430    -1.3450    -0.2770 C.3   1 <1>   0.0000 
 14 H        2.8440    -1.7380    -1.3010 H     1 <1>   0.0000 
 15 H        3.1220    -2.1850     0.3740 H     1 <1>   0.0000 
@<TRIPOS>BOND
  1   1   2  1   
  2   2   3  1   
  3   3   4  1   
  4   3   5  1   
  5   3  13  1   
  6   5   6  1   
  7   5   7  2   
  8   7   8  1   
  9   7   9  1   
 10   9  10  1   
 11   9  11  1   
 12   9  13  1   
 13  11  12  3   
 14  13  14  1   
 15  13  15  1   
@<TRIPOS>SUBSTRUCTURE
  1 ****   9 GROUP 4 **** **** 0

# MOE 2022.02 (io_trps.svl 2020.11)

@<TRIPOS>MOLECULE
UNP041
29 29 1 0 0 
SMALL
USER_CHARGES


@<TRIPOS>ATOM
  1 H       -1.4910    -1.8120     0.7390 H     1 <1>   0.0000 
  2 C       -0.7790    -2.1630     1.4920 C.3   1 <1>   0.0000 
  3 H       -1.2250    -1.9800     2.4750 H     1 <1>   0.0000 
  4 H       -0.6550    -3.2440     1.3770 H     1 <1>   0.0000 
  5 C        0.5550    -1.4350     1.3830 C.3   1 <1>   0.0000 
  6 H        0.3830    -0.3570     1.4960 H     1 <1>   0.0000 
  7 H        1.1670    -1.7510     2.2380 H     1 <1>   0.0000 
  8 C        1.3260    -1.7060     0.0740 C.3   1 <1>   0.2800 
  9 C        0.5470    -1.2570    -1.1610 C.3   1 <1>   0.0000 
 10 H        0.3090    -0.1900    -1.1190 H     1 <1>   0.0000 
 11 H        1.1240    -1.4480    -2.0740 H     1 <1>   0.0000 
 12 H       -0.3830    -1.8230    -1.2770 H     1 <1>   0.0000 
 13 O        1.5830    -3.1100    -0.0460 O.3   1 <1>  -0.2800 
 14 O        2.8000    -3.3240     0.7370 O.3   1 <1>  -0.2800 
 15 C        3.6660    -2.2510     0.3470 C.3   1 <1>   0.2800 
 16 C        4.6150    -1.9610     1.5090 C.3   1 <1>   0.0000 
 17 H        5.1850    -2.8520     1.7930 H     1 <1>   0.0000 
 18 H        4.0550    -1.6710     2.4050 H     1 <1>   0.0000 
 19 H        5.3160    -1.1570     1.2630 H     1 <1>   0.0000 
 20 C        4.4190    -2.6400    -0.9420 C.3   1 <1>   0.0000 
 21 H        3.6950    -2.8040    -1.7510 H     1 <1>   0.0000 
 22 H        5.0670    -1.8140    -1.2580 H     1 <1>   0.0000 
 23 C        5.2540    -3.9100    -0.8250 C.3   1 <1>   0.0000 
 24 H        4.6440    -4.7630    -0.5150 H     1 <1>   0.0000 
 25 H        5.7000    -4.1520    -1.7960 H     1 <1>   0.0000 
 26 H        6.0720    -3.7880    -0.1100 H     1 <1>   0.0000 
 27 C        2.7190    -1.0750     0.1050 C.3   1 <1>   0.0000 
 28 H        2.7880    -0.3080     0.8860 H     1 <1>   0.0000 
 29 H        2.9670    -0.5560    -0.8290 H     1 <1>   0.0000 
@<TRIPOS>BOND
  1   1   2  1   
  2   2   3  1   
  3   2   4  1   
  4   2   5  1   
  5   5   6  1   
  6   5   7  1   
  7   5   8  1   
  8   8   9  1   
  9   8  13  1   
 10   8  27  1   
 11   9  10  1   
 12   9  11  1   
 13   9  12  1   
 14  13  14  1   
 15  14  15  1   
 16  15  16  1   
 17  15  20  1   
 18  15  27  1   
 19  16  17  1   
 20  16  18  1   
 21  16  19  1   
 22  20  21  1   
 23  20  22  1   
 24  20  23  1   
 25  23  24  1   
 26  23  25  1   
 27  23  26  1   
 28  27  28  1   
 29  27  29  1   
@<TRIPOS>SUBSTRUCTURE
  1 ****  27 GROUP 4 **** **** 0

# MOE 2022.02 (io_trps.svl 2020.11)

@<TRIPOS>MOLECULE
UNP042
23 23 1 0 0 
SMALL
USER_CHARGES


@<TRIPOS>ATOM
  1 H        1.8620    -1.5050    -0.2170 H     1 <1>   0.1500 
  2 C        1.8230    -0.4160    -0.2590 C.2   1 <1>  -0.2880 
  3 C        2.9710     0.2490    -0.0130 C.2   1 <1>  -0.2760 
  4 C        3.1140     1.7440    -0.0590 C.3   1 <1>   0.1380 
  5 H        4.1690     2.0400    -0.0310 H     1 <1>   0.0000 
  6 H        2.6220     2.2050     0.8030 H     1 <1>   0.0000 
  7 H        2.7040     2.1570    -0.9860 H     1 <1>   0.0000 
  8 C        4.2330    -0.4970     0.3310 C.3   1 <1>   0.1380 
  9 H        4.0790    -1.5810     0.3730 H     1 <1>   0.0000 
 10 H        4.6070    -0.1770     1.3090 H     1 <1>   0.0000 
 11 H        5.0060    -0.3000    -0.4190 H     1 <1>   0.0000 
 12 C        0.4450     0.0930    -0.5920 C.3   1 <1>   0.4180 
 13 H        0.1920    -0.2310    -1.6080 H     1 <1>   0.0000 
 14 O        0.3390     1.5240    -0.5770 O.3   1 <1>  -0.5600 
 15 C       -0.8230     1.8950     0.1730 C.3   1 <1>   0.2800 
 16 H       -1.3480     2.7080    -0.3370 H     1 <1>   0.0000 
 17 H       -0.4900     2.2540     1.1530 H     1 <1>   0.0000 
 18 C       -1.6650     0.6480     0.3020 C.3   1 <1>   0.0000 
 19 H       -2.3380     0.6710     1.1630 H     1 <1>   0.0000 
 20 H       -2.2660     0.5030    -0.6040 H     1 <1>   0.0000 
 21 C       -0.6060    -0.4210     0.3870 C.3   1 <1>   0.0000 
 22 H       -0.2100    -0.4660     1.4100 H     1 <1>   0.0000 
 23 H       -0.9770    -1.4170     0.1250 H     1 <1>   0.0000 
@<TRIPOS>BOND
  1   1   2  1   
  2   2   3  2   
  3   2  12  1   
  4   3   4  1   
  5   3   8  1   
  6   4   5  1   
  7   4   6  1   
  8   4   7  1   
  9   8   9  1   
 10   8  10  1   
 11   8  11  1   
 12  12  13  1   
 13  12  14  1   
 14  12  21  1   
 15  14  15  1   
 16  15  16  1   
 17  15  17  1   
 18  15  18  1   
 19  18  19  1   
 20  18  20  1   
 21  18  21  1   
 22  21  22  1   
 23  21  23  1   
@<TRIPOS>SUBSTRUCTURE
  1 ****  12 GROUP 4 **** **** 0

# MOE 2022.02 (io_trps.svl 2020.11)

@<TRIPOS>MOLECULE
UNP043
17 17 1 0 0 
SMALL
USER_CHARGES


@<TRIPOS>ATOM
  1 H       -6.2340     2.3730     0.9000 H     1 <1>   0.1500 
  2 C       -5.1830     2.3630     0.6270 C.ar  1 <1>  -0.1500 
  3 C       -4.6370     3.4300    -0.0840 C.ar  1 <1>  -0.1500 
  4 H       -5.2620     4.2740    -0.3620 H     1 <1>   0.1500 
  5 C       -3.2850     3.4190    -0.4330 C.ar  1 <1>  -0.1500 
  6 H       -2.8700     4.2650    -0.9770 H     1 <1>   0.1500 
  7 C       -2.4680     2.3350    -0.0820 C.ar  1 <1>  -0.1440 
  8 C       -1.0050     2.3310    -0.4460 C.3   1 <1>   0.3890 
  9 H       -0.8770     2.8120    -1.4260 H     1 <1>   0.0000 
 10 H       -0.6630     1.2940    -0.5630 H     1 <1>   0.0000 
 11 N       -0.2030     3.0240     0.5660 N.2   1 <1>  -0.5460 
 12 C        0.9670     3.0730     0.5050 C.1   1 <1>   0.5750 
 13 S        2.5760     3.1400     0.4180 S.2   1 <1>  -0.2750 
 14 C       -3.0240     1.2740     0.6470 C.ar  1 <1>  -0.1500 
 15 H       -2.4060     0.4330     0.9510 H     1 <1>   0.1500 
 16 C       -4.3770     1.2870     0.9950 C.ar  1 <1>  -0.1500 
 17 H       -4.8000     0.4590     1.5580 H     1 <1>   0.1500 
@<TRIPOS>BOND
  1   1   2  1   
  2   2   3  ar  
  3   2  16  ar  
  4   3   4  1   
  5   3   5  ar  
  6   5   6  1   
  7   5   7  ar  
  8   7   8  1   
  9   7  14  ar  
 10   8   9  1   
 11   8  10  1   
 12   8  11  1   
 13  11  12  2   
 14  12  13  2   
 15  14  15  1   
 16  14  16  ar  
 17  16  17  1   
@<TRIPOS>SUBSTRUCTURE
  1 ****   7 GROUP 4 **** **** 0

# MOE 2022.02 (io_trps.svl 2020.11)

@<TRIPOS>MOLECULE
UNP044
16 16 1 0 0 
SMALL
USER_CHARGES


@<TRIPOS>ATOM
  1 H       -0.5150     0.6360     0.0040 H     1 <1>   0.0600 
  2 C        0.0450    -0.3100     0.0040 C.2   1 <1>   0.4240 
  3 O       -0.5540    -1.3800     0.0040 O.2   1 <1>  -0.5700 
  4 C        1.5230    -0.2320     0.0040 C.ar  1 <1>   0.0860 
  5 C        2.2340    -1.4460     0.0050 C.ar  1 <1>  -0.1500 
  6 H        1.6990    -2.3950     0.0050 H     1 <1>   0.1500 
  7 C        3.6270    -1.4470     0.0050 C.ar  1 <1>  -0.1500 
  8 H        4.1680    -2.3900     0.0060 H     1 <1>   0.1500 
  9 C        4.3080    -0.2360     0.0040 C.ar  1 <1>   0.1770 
 10 CL       6.0290    -0.2250     0.0040 Cl    1 <1>  -0.1770 
 11 C        3.6080     0.9730     0.0030 C.ar  1 <1>  -0.1500 
 12 H        4.1680     1.9050     0.0030 H     1 <1>   0.1500 
 13 C        2.2030     1.0010     0.0030 C.ar  1 <1>   0.1000 
 14 N        1.5770     2.2400     0.0020 N.pl3 1 <1>  -0.9000 
 15 H        2.1350     3.0860     0.0020 H     1 <1>   0.4000 
 16 H        0.5750     2.3610     0.0020 H     1 <1>   0.4000 
@<TRIPOS>BOND
  1   1   2  1   
  2   2   3  2   
  3   2   4  1   
  4   4   5  ar  
  5   4  13  ar  
  6   5   6  1   
  7   5   7  ar  
  8   7   8  1   
  9   7   9  ar  
 10   9  10  1   
 11   9  11  ar  
 12  11  12  1   
 13  11  13  ar  
 14  13  14  1   
 15  14  15  1   
 16  14  16  1   
@<TRIPOS>SUBSTRUCTURE
  1 ****   4 GROUP 4 **** **** 0

# MOE 2022.02 (io_trps.svl 2020.11)

@<TRIPOS>MOLECULE
UNP045
23 22 1 0 0 
SMALL
USER_CHARGES


@<TRIPOS>ATOM
  1 H       -1.2070    -2.0000     0.4590 H     1 <1>   0.0600 
  2 C       -0.3250    -2.5520     0.0970 C.2   1 <1>   0.5100 
  3 O       -0.3730    -3.6290    -0.4740 O.2   1 <1>  -0.5700 
  4 C        0.9930    -1.8650     0.3610 C.2   1 <1>   0.5090 
  5 O        0.9700    -0.7940     0.9520 O.2   1 <1>  -0.5700 
  6 C        2.2320    -2.5740    -0.1350 C.3   1 <1>   0.0610 
  7 H        2.2720    -3.5610     0.3400 H     1 <1>   0.0000 
  8 H        2.1390    -2.7070    -1.2190 H     1 <1>   0.0000 
  9 C        3.5090    -1.7990     0.1810 C.3   1 <1>   0.0000 
 10 H        3.5860    -1.6340     1.2630 H     1 <1>   0.0000 
 11 H        3.4620    -0.8030    -0.2790 H     1 <1>   0.0000 
 12 C        4.7480    -2.5410    -0.3190 C.3   1 <1>   0.0610 
 13 H        4.6900    -2.6710    -1.4050 H     1 <1>   0.0000 
 14 H        4.7970    -3.5300     0.1510 H     1 <1>   0.0000 
 15 C        6.0360    -1.8020    -0.0010 C.2   1 <1>   0.4950 
 16 O        6.0620    -0.6950     0.5270 O.2   1 <1>  -0.5700 
 17 C        7.2990    -2.5000    -0.3770 C.2   1 <1>  -0.1360 
 18 H        7.2080    -3.4670    -0.8570 H     1 <1>   0.1500 
 19 C        8.4770    -1.9230    -0.1120 C.2   1 <1>  -0.1360 
 20 H        8.5740    -0.9560     0.3700 H     1 <1>   0.1500 
 21 C        9.7330    -2.6040    -0.4760 C.2   1 <1>   0.4960 
 22 H        9.6340    -3.5860    -0.9680 H     1 <1>   0.0600 
 23 O       10.8240    -2.1030    -0.2430 O.2   1 <1>  -0.5700 
@<TRIPOS>BOND
  1   1   2  1   
  2   2   3  2   
  3   2   4  1   
  4   4   5  2   
  5   4   6  1   
  6   6   7  1   
  7   6   8  1   
  8   6   9  1   
  9   9  10  1   
 10   9  11  1   
 11   9  12  1   
 12  12  13  1   
 13  12  14  1   
 14  12  15  1   
 15  15  16  2   
 16  15  17  1   
 17  17  18  1   
 18  17  19  2   
 19  19  20  1   
 20  19  21  1   
 21  21  22  1   
 22  21  23  2   
@<TRIPOS>SUBSTRUCTURE
  1 ****  12 GROUP 4 **** **** 0

# MOE 2022.02 (io_trps.svl 2020.11)

@<TRIPOS>MOLECULE
UNP046
24 25 1 0 0 
SMALL
USER_CHARGES


@<TRIPOS>ATOM
  1 H        1.7090    -0.3070     0.0010 H     1 <1>   0.1500 
  2 C        0.8010    -0.8980    -0.0250 C.ar  1 <1>  -0.1500 
  3 C       -0.4230    -0.2180    -0.0400 C.ar  1 <1>  -0.1500 
  4 H       -0.4240     0.8680    -0.0240 H     1 <1>   0.1500 
  5 C       -1.6320    -0.9160    -0.0730 C.ar  1 <1>   0.1000 
  6 C       -1.6060    -2.3190    -0.0830 C.ar  1 <1>  -0.1440 
  7 C       -0.3770    -2.9960    -0.0810 C.ar  1 <1>  -0.1500 
  8 H       -0.3540    -4.0830    -0.1040 H     1 <1>   0.1500 
  9 C        0.8290    -2.2920    -0.0460 C.ar  1 <1>   0.0820 
 10 O        1.9490    -3.0760    -0.0410 O.3   1 <1>  -0.3630 
 11 C        3.2000    -2.4060     0.0550 C.3   1 <1>   0.2800 
 12 H        3.9860    -3.1660     0.0720 H     1 <1>   0.0000 
 13 H        3.3730    -1.7680    -0.8180 H     1 <1>   0.0000 
 14 H        3.2710    -1.8320     0.9850 H     1 <1>   0.0000 
 15 C       -2.9030    -3.0860    -0.1640 C.3   1 <1>   0.4140 
 16 H       -3.1020    -3.3300    -1.2150 H     1 <1>   0.0000 
 17 H       -2.8040    -4.0320     0.3810 H     1 <1>   0.0000 
 18 N       -4.0370    -2.3570     0.4080 N.3   1 <1>  -0.9000 
 19 H       -4.9010    -2.8310     0.1670 H     1 <1>   0.3600 
 20 C       -4.0490    -1.0150    -0.1510 C.3   1 <1>   0.6390 
 21 H       -4.8370    -0.4480     0.3570 H     1 <1>   0.0000 
 22 H       -4.3610    -1.0720    -1.2020 H     1 <1>   0.0000 
 23 N       -2.8380    -0.2400    -0.0890 N.pl3 1 <1>  -0.8690 
 24 H       -2.8790     0.7660    -0.0560 H     1 <1>   0.4000 
@<TRIPOS>BOND
  1   1   2  1   
  2   2   3  ar  
  3   2   9  ar  
  4   3   4  1   
  5   3   5  ar  
  6   5   6  ar  
  7   5  23  1   
  8   6   7  ar  
  9   6  15  1   
 10   7   8  1   
 11   7   9  ar  
 12   9  10  1   
 13  10  11  1   
 14  11  12  1   
 15  11  13  1   
 16  11  14  1   
 17  15  16  1   
 18  15  17  1   
 19  15  18  1   
 20  18  19  1   
 21  18  20  1   
 22  20  21  1   
 23  20  22  1   
 24  20  23  1   
 25  23  24  1   
@<TRIPOS>SUBSTRUCTURE
  1 ****   6 GROUP 4 **** **** 0

# MOE 2022.02 (io_trps.svl 2020.11)

@<TRIPOS>MOLECULE
UNP047
49 55 1 0 0 
SMALL
USER_CHARGES


@<TRIPOS>ATOM
  1 H        1.0400     1.1590    -0.0040 H     1 <1>   0.4000 
  2 O        0.6860     0.2560    -0.0800 O.3   1 <1>  -0.6800 
  3 C        1.7730    -0.6100    -0.3990 C.3   1 <1>   0.2800 
  4 H        2.2020    -0.2580    -1.3450 H     1 <1>   0.0000 
  5 C        1.2160    -2.0190    -0.5840 C.3   1 <1>   0.0000 
  6 H        0.6000    -2.2800     0.2870 H     1 <1>   0.0000 
  7 H        0.4880    -1.9770    -1.4070 H     1 <1>   0.0000 
  8 C        2.2750    -3.1120    -0.8580 C.3   1 <1>   0.0000 
  9 C        1.9100    -3.8530    -2.1580 C.3   1 <1>   0.0000 
 10 H        1.9030    -3.1640    -3.0100 H     1 <1>   0.0000 
 11 H        0.9140    -4.3040    -2.0820 H     1 <1>   0.0000 
 12 H        2.6150    -4.6570    -2.3930 H     1 <1>   0.0000 
 13 C        2.4020    -4.1070     0.2980 C.3   1 <1>   0.2700 
 14 H        2.1780    -5.1350    -0.0120 H     1 <1>   0.0000 
 15 H        1.7540    -3.8880     1.1530 H     1 <1>   0.0000 
 16 N        3.8160    -4.0200     0.6970 N.3   1 <1>  -0.8100 
 17 C        4.6580    -3.9480    -0.5560 C.3   1 <1>   0.2700 
 18 H        4.5430    -4.8080    -1.2210 H     1 <1>   0.0000 
 19 C        6.4560    -3.8040    -0.0060 C.3   1 <1>   0.0000 
 20 H        6.6760    -4.7290     0.5570 H     1 <1>   0.0000 
 21 H        7.1400    -3.7740    -0.8630 H     1 <1>   0.0000 
 22 C        6.7390    -2.3430     1.2160 C.3   1 <1>   0.0000 
 23 C        8.1510    -1.8850     0.9120 C.3   1 <1>   0.1380 
 24 H        8.5140    -1.3350     1.7900 H     1 <1>   0.0000 
 25 H        8.8090    -2.7570     0.8110 H     1 <1>   0.0000 
 26 C        8.2520    -1.0010    -0.2770 C.2   1 <1>  -0.2760 
 27 C        9.3950    -0.7720    -0.9380 C.2   1 <1>  -0.3000 
 28 H       10.3310    -1.2210    -0.6190 H     1 <1>   0.1500 
 29 H        9.4260    -0.1300    -1.8130 H     1 <1>   0.1500 
 30 C        6.9330    -0.4360    -0.6650 C.3   1 <1>   0.1380 
 31 H        7.0110     0.2180    -1.5410 H     1 <1>   0.0000 
 32 C        5.9910    -1.6210    -0.9070 C.3   1 <1>   0.0000 
 33 H        6.3340    -2.2910    -1.7040 H     1 <1>   0.0000 
 34 H        5.1800    -1.0490    -1.3740 H     1 <1>   0.0000 
 35 C        5.4650    -2.4680     0.7280 C.3   1 <1>   0.0000 
 36 H        5.6660    -3.2900     1.5160 H     1 <1>   0.0000 
 37 C        4.0690    -2.6610     1.2600 C.3   1 <1>   0.2700 
 38 H        3.9190    -2.5530     2.3400 H     1 <1>   0.0000 
 39 C        3.9720    -1.4650     0.4460 C.3   1 <1>   0.0000 
 40 C        2.8130    -0.5330     0.7090 C.3   1 <1>   0.0000 
 41 H        3.1750     0.5000     0.7720 H     1 <1>   0.0000 
 42 H        2.3480    -0.7370     1.6820 H     1 <1>   0.0000 
 43 C        3.7360    -2.5860    -0.9150 C.3   1 <1>   0.0000 
 44 H        3.9060    -2.1810    -1.9170 H     1 <1>   0.0000 
 45 C        5.6020    -0.8980     1.2450 C.3   1 <1>   0.0000 
 46 H        5.3820    -0.6320     2.2940 H     1 <1>   0.0000 
 47 C        6.2480     0.2660     0.4910 C.3   1 <1>   0.0000 
 48 H        5.4840     0.9700     0.1460 H     1 <1>   0.0000 
 49 H        6.9570     0.8130     1.1220 H     1 <1>   0.0000 
@<TRIPOS>BOND
  1   1   2  1   
  2   2   3  1   
  3   3   4  1   
  4   3   5  1   
  5   3  40  1   
  6   5   6  1   
  7   5   7  1   
  8   5   8  1   
  9   8   9  1   
 10   8  13  1   
 11   8  43  1   
 12   9  10  1   
 13   9  11  1   
 14   9  12  1   
 15  13  14  1   
 16  13  15  1   
 17  13  16  1   
 18  16  17  1   
 19  16  37  1   
 20  17  18  1   
 21  17  19  1   
 22  17  43  1   
 23  19  20  1   
 24  19  21  1   
 25  19  22  1   
 26  22  23  1   
 27  22  35  1   
 28  22  45  1   
 29  23  24  1   
 30  23  25  1   
 31  23  26  1   
 32  26  27  2   
 33  26  30  1   
 34  27  28  1   
 35  27  29  1   
 36  30  31  1   
 37  30  32  1   
 38  30  47  1   
 39  32  33  1   
 40  32  34  1   
 41  32  35  1   
 42  35  36  1   
 43  35  37  1   
 44  37  38  1   
 45  37  39  1   
 46  39  40  1   
 47  39  43  1   
 48  39  45  1   
 49  40  41  1   
 50  40  42  1   
 51  43  44  1   
 52  45  46  1   
 53  45  47  1   
 54  47  48  1   
 55  47  49  1   
@<TRIPOS>SUBSTRUCTURE
  1 ****  39 GROUP 4 **** **** 0

# MOE 2022.02 (io_trps.svl 2020.11)

@<TRIPOS>MOLECULE
UNP048
15 15 1 0 0 
SMALL
NO_CHARGES


@<TRIPOS>ATOM
  1 H        1.2560     1.9340    -1.2260 H     1 <1>   0.0000 
  2 C        0.8000     1.6570    -0.2680 C.3   1 <1>   0.0000 
  3 H        1.5460     1.8390     0.5130 H     1 <1>   0.0000 
  4 C        0.3700     0.1910    -0.2720 C.3   1 <1>   0.0000 
  5 H        0.8590    -0.3820    -1.0650 H     1 <1>   0.0000 
  6 H        0.6360    -0.2720     0.6860 H     1 <1>   0.0000 
  7 C       -1.1410     0.2220    -0.4300 C.3   1 <1>   0.0000 
  8 H       -1.4100     0.3270    -1.4880 H     1 <1>   0.0000 
  9 H       -1.6190    -0.6830    -0.0430 H     1 <1>   0.0000 
 10 C       -1.5430     1.4660     0.3420 C.3   1 <1>   0.0000 
 11 H       -2.5470     1.8140     0.0820 H     1 <1>   0.0000 
 12 H       -1.5180     1.2680     1.4200 H     1 <1>   0.0000 
 13 C       -0.4680     2.4760    -0.0300 C.3   1 <1>   0.0000 
 14 H       -0.3300     3.2330     0.7470 H     1 <1>   0.0000 
 15 H       -0.7470     2.9970    -0.9540 H     1 <1>   0.0000 
@<TRIPOS>BOND
  1   1   2  1   
  2   2   3  1   
  3   2   4  1   
  4   2  13  1   
  5   4   5  1   
  6   4   6  1   
  7   4   7  1   
  8   7   8  1   
  9   7   9  1   
 10   7  10  1   
 11  10  11  1   
 12  10  12  1   
 13  10  13  1   
 14  13  14  1   
 15  13  15  1   
@<TRIPOS>SUBSTRUCTURE
  1 ****   7 GROUP 4 **** **** 0

# MOE 2022.02 (io_trps.svl 2020.11)

@<TRIPOS>MOLECULE
UNP049
14 14 1 0 0 
SMALL
USER_CHARGES


@<TRIPOS>ATOM
  1 H        7.8220     0.8390    -0.0830 H     1 <1>   0.0000 
  2 C        7.3230    -0.1340    -0.1360 C.3   1 <1>   0.2000 
  3 H        7.8030    -0.8010     0.5860 H     1 <1>   0.0000 
  4 H        7.4860    -0.5440    -1.1380 H     1 <1>   0.0000 
  5 C        5.8950    -0.0010     0.1460 C.1   1 <1>  -0.2000 
  6 C        4.7220     0.1060     0.3830 C.1   1 <1>  -0.1050 
  7 C        3.3260     0.2290     0.6820 C.3   1 <1>   0.0050 
  8 H        3.0860     0.3160     1.7380 H     1 <1>   0.1000 
  9 C        2.4480     1.0000    -0.2710 C.3   1 <1>  -0.2000 
 10 H        1.6570     1.6070     0.1540 H     1 <1>   0.1000 
 11 H        2.8930     1.4230    -1.1650 H     1 <1>   0.1000 
 12 C        2.3340    -0.4920    -0.1890 C.3   1 <1>   0.1270 
 13 H        2.6860    -1.0880    -1.0210 H     1 <1>   0.1000 
 14 CL       0.9090    -1.1970     0.5320 Cl    1 <1>  -0.2270 
@<TRIPOS>BOND
  1   1   2  1   
  2   2   3  1   
  3   2   4  1   
  4   2   5  1   
  5   5   6  3   
  6   6   7  1   
  7   7   8  1   
  8   7   9  1   
  9   7  12  1   
 10   9  10  1   
 11   9  11  1   
 12   9  12  1   
 13  12  13  1   
 14  12  14  1   
@<TRIPOS>SUBSTRUCTURE
  1 ****   7 GROUP 4 **** **** 0

# MOE 2022.02 (io_trps.svl 2020.11)

@<TRIPOS>MOLECULE
UNP050
10 10 1 0 0 
SMALL
USER_CHARGES


@<TRIPOS>ATOM
  1 H       -0.5800     3.1040     0.0060 H     1 <1>   0.1500 
  2 C       -0.9040     2.0720     0.0040 C.2   1 <1>  -0.1500 
  3 C       -0.0820     0.9230     0.0020 C.2   1 <1>   0.1230 
  4 CL       1.6140     0.9320     0.0010 Cl    1 <1>  -0.1230 
  5 C       -0.9060    -0.1790     0.0000 C.2   1 <1>  -0.3020 
  6 H       -0.6820    -1.2360    -0.0020 H     1 <1>   0.1500 
  7 N       -2.2030     0.2660     0.0020 N.pl3 1 <1>   0.0330 
  8 H       -3.0250    -0.3250     0.0020 H     1 <1>   0.2700 
  9 C       -2.2130     1.6380     0.0050 C.2   1 <1>  -0.3020 
 10 H       -3.1460     2.1850     0.0060 H     1 <1>   0.1500 
@<TRIPOS>BOND
  1   1   2  1   
  2   2   3  1   
  3   2   9  2   
  4   3   4  1   
  5   3   5  2   
  6   5   6  1   
  7   5   7  1   
  8   7   8  1   
  9   7   9  1   
 10   9  10  1   
@<TRIPOS>SUBSTRUCTURE
  1 ****   3 GROUP 4 **** **** 0

# MOE 2022.02 (io_trps.svl 2020.11)

@<TRIPOS>MOLECULE
UNP051
19 20 1 0 0 
SMALL
USER_CHARGES


@<TRIPOS>ATOM
  1 H        9.1140     0.8150     0.0130 H     1 <1>   0.4500 
  2 O        8.7390    -0.0810     0.0390 O.3   1 <1>  -0.5320 
  3 C        7.3800     0.0110     0.0290 C.ar  1 <1>   0.0820 
  4 C        6.6500    -1.1690     0.0620 C.ar  1 <1>  -0.1500 
  5 H        7.1640    -2.1260     0.0940 H     1 <1>   0.1500 
  6 C        5.2530    -1.1210     0.0520 C.ar  1 <1>  -0.1500 
  7 H        4.7010    -2.0580     0.0790 H     1 <1>   0.1500 
  8 C        4.5750     0.1070     0.0100 C.ar  1 <1>   0.0530 
  9 C        3.1190     0.1670     0.0000 C.2   1 <1>   0.0870 
 10 O        2.4380    -1.0250     0.0320 O.3   1 <1>  -0.2800 
 11 C        1.1280    -0.6620     0.0130 C.2   1 <1>   0.3280 
 12 H        0.4030    -1.4630     0.0330 H     1 <1>   0.1500 
 13 N        0.9050     0.6320    -0.0280 N.2   1 <1>  -0.5650 
 14 C        2.1700     1.1670    -0.0370 C.2   1 <1>   0.0770 
 15 H        2.3250     2.2360    -0.0680 H     1 <1>   0.1500 
 16 C        5.3370     1.2870    -0.0220 C.ar  1 <1>  -0.1500 
 17 H        4.8530     2.2600    -0.0560 H     1 <1>   0.1500 
 18 C        6.7360     1.2420    -0.0130 C.ar  1 <1>  -0.1500 
 19 H        7.2970     2.1700    -0.0390 H     1 <1>   0.1500 
@<TRIPOS>BOND
  1   1   2  1   
  2   2   3  1   
  3   3   4  ar  
  4   3  18  ar  
  5   4   5  1   
  6   4   6  ar  
  7   6   7  1   
  8   6   8  ar  
  9   8   9  1   
 10   8  16  ar  
 11   9  10  1   
 12   9  14  2   
 13  10  11  1   
 14  11  12  1   
 15  11  13  2   
 16  13  14  1   
 17  14  15  1   
 18  16  17  1   
 19  16  18  ar  
 20  18  19  1   
@<TRIPOS>SUBSTRUCTURE
  1 ****   8 GROUP 4 **** **** 0

# MOE 2022.02 (io_trps.svl 2020.11)

@<TRIPOS>MOLECULE
UNP052
8 7 1 0 0 
SMALL
USER_CHARGES


@<TRIPOS>ATOM
  1 H        5.4710    -0.7980     0.0130 H     1 <1>   0.4000 
  2 O        4.7200    -1.4220     0.0080 O.3   1 <1>  -0.3370 
  3 N        3.6100    -0.5690     0.0080 N.2   1 <1>  -0.5130 
  4 C        2.5380    -1.2890     0.0030 C.2   1 <1>   0.3900 
  5 H        2.5170    -2.3910    -0.0010 H     1 <1>   0.0600 
  6 C        1.2060    -0.6150     0.0020 C.2   1 <1>   0.5100 
  7 H        1.2350     0.4860     0.0040 H     1 <1>   0.0600 
  8 O        0.1870    -1.2860    -0.0020 O.2   1 <1>  -0.5700 
@<TRIPOS>BOND
  1   1   2  1   
  2   2   3  1   
  3   3   4  2   
  4   4   5  1   
  5   4   6  1   
  6   6   7  1   
  7   6   8  2   
@<TRIPOS>SUBSTRUCTURE
  1 ****   4 GROUP 4 **** **** 0

# MOE 2022.02 (io_trps.svl 2020.11)

@<TRIPOS>MOLECULE
UNP053
16 16 1 0 0 
SMALL
USER_CHARGES


@<TRIPOS>ATOM
  1 H        0.7490    -0.6070    -0.1740 H     1 <1>   0.1500 
  2 C       -0.0150     0.1450    -0.0120 C.2   1 <1>  -0.1360 
  3 C       -1.3050    -0.1950     0.1400 C.2   1 <1>  -0.2880 
  4 H       -1.5500    -1.2570     0.1390 H     1 <1>   0.1500 
  5 C       -2.4840     0.7340     0.2590 C.3   1 <1>   0.1380 
  6 H       -2.7860     0.8030     1.3110 H     1 <1>   0.0000 
  7 H       -3.3190     0.2700    -0.2790 H     1 <1>   0.0000 
  8 C       -2.2770     2.1300    -0.3340 C.3   1 <1>   0.0000 
  9 H       -3.2380     2.6550    -0.3910 H     1 <1>   0.0000 
 10 H       -1.9230     2.0300    -1.3690 H     1 <1>   0.0000 
 11 C       -1.2930     2.9870     0.4560 C.3   1 <1>   0.2800 
 12 H       -0.9510     3.8430    -0.1360 H     1 <1>   0.0000 
 13 H       -1.8020     3.3920     1.3380 H     1 <1>   0.0000 
 14 O       -0.1600     2.2660     0.9450 O.3   1 <1>  -0.4300 
 15 C        0.4850     1.5330     0.0110 C.2   1 <1>   0.7060 
 16 O        1.4520     1.9100    -0.6290 O.2   1 <1>  -0.5700 
@<TRIPOS>BOND
  1   1   2  1   
  2   2   3  2   
  3   2  15  1   
  4   3   4  1   
  5   3   5  1   
  6   5   6  1   
  7   5   7  1   
  8   5   8  1   
  9   8   9  1   
 10   8  10  1   
 11   8  11  1   
 12  11  12  1   
 13  11  13  1   
 14  11  14  1   
 15  14  15  1   
 16  15  16  2   
@<TRIPOS>SUBSTRUCTURE
  1 ****  15 GROUP 4 **** **** 0

# MOE 2022.02 (io_trps.svl 2020.11)

@<TRIPOS>MOLECULE
UNP054
8 7 1 0 0 
SMALL
USER_CHARGES


@<TRIPOS>ATOM
  1 H        0.0350     1.8160    -0.0110 H     1 <1>   0.0600 
  2 C        0.0120     0.7140    -0.0020 C.2   1 <1>   0.4960 
  3 O       -1.0380     0.0850     0.0010 O.2   1 <1>  -0.5700 
  4 C        1.3160     0.0260     0.0040 C.2   1 <1>  -0.1360 
  5 H        1.2870    -1.0570     0.0130 H     1 <1>   0.1500 
  6 C        2.4480     0.7410     0.0000 C.2   1 <1>  -0.0600 
  7 H        2.4210     1.8270    -0.0080 H     1 <1>   0.1500 
  8 I        4.2840    -0.1600     0.0080 I     1 <1>  -0.0900 
@<TRIPOS>BOND
  1   1   2  1   
  2   2   3  2   
  3   2   4  1   
  4   4   5  1   
  5   4   6  2   
  6   6   7  1   
  7   6   8  1   
@<TRIPOS>SUBSTRUCTURE
  1 ****   4 GROUP 4 **** **** 0

# MOE 2022.02 (io_trps.svl 2020.11)

@<TRIPOS>MOLECULE
UNP055
21 22 1 0 0 
SMALL
USER_CHARGES


@<TRIPOS>ATOM
  1 H       -0.3590     2.3350    -0.0340 H     1 <1>   0.1500 
  2 C       -0.8580     1.3720    -0.0160 C.2   1 <1>  -0.1360 
  3 C       -0.1770     0.2190     0.0010 C.2   1 <1>  -0.1240 
  4 C        1.3190     0.1540    -0.0060 C.3   1 <1>   0.1380 
  5 H        1.6760    -0.3820    -0.8910 H     1 <1>   0.0000 
  6 H        1.6850    -0.3630     0.8870 H     1 <1>   0.0000 
  7 H        1.7700     1.1520    -0.0190 H     1 <1>   0.0000 
  8 C       -0.8960    -1.0830     0.0270 C.2   1 <1>   0.4690 
  9 O       -0.2850    -2.1450     0.0450 O.2   1 <1>  -0.5700 
 10 C       -2.3730    -1.0610     0.0300 C.ar  1 <1>   0.0860 
 11 C       -3.0820    -2.2700     0.0510 C.ar  1 <1>  -0.1500 
 12 H       -2.5500    -3.2200     0.0650 H     1 <1>   0.1500 
 13 C       -4.4780    -2.2620     0.0520 C.ar  1 <1>  -0.1500 
 14 H       -5.0260    -3.2010     0.0680 H     1 <1>   0.1500 
 15 C       -5.1700    -1.0500     0.0330 C.ar  1 <1>  -0.1500 
 16 H       -6.2580    -1.0450     0.0340 H     1 <1>   0.1500 
 17 C       -4.4670     0.1550     0.0130 C.ar  1 <1>  -0.1500 
 18 H       -5.0120     1.0970    -0.0020 H     1 <1>   0.1500 
 19 C       -3.0660     0.1480     0.0110 C.ar  1 <1>   0.0860 
 20 C       -2.3320     1.4260    -0.0100 C.2   1 <1>   0.4690 
 21 O       -2.9100     2.5050    -0.0240 O.2   1 <1>  -0.5700 
@<TRIPOS>BOND
  1   1   2  1   
  2   2   3  2   
  3   2  20  1   
  4   3   4  1   
  5   3   8  1   
  6   4   5  1   
  7   4   6  1   
  8   4   7  1   
  9   8   9  2   
 10   8  10  1   
 11  10  11  ar  
 12  10  19  ar  
 13  11  12  1   
 14  11  13  ar  
 15  13  14  1   
 16  13  15  ar  
 17  15  16  1   
 18  15  17  ar  
 19  17  18  1   
 20  17  19  ar  
 21  19  20  1   
 22  20  21  2   
@<TRIPOS>SUBSTRUCTURE
  1 ****  10 GROUP 4 **** **** 0

# MOE 2022.02 (io_trps.svl 2020.11)

@<TRIPOS>MOLECULE
UNP056
16 17 1 0 0 
SMALL
USER_CHARGES


@<TRIPOS>ATOM
  1 H       -2.2570     1.2290     0.1350 H     1 <1>   0.1500 
  2 C       -1.2530     1.6320     0.1490 C.2   1 <1>   0.1390 
  3 N       -0.2140     0.7890     0.0160 N.2   1 <1>  -0.7070 
  4 N        0.8190     1.6200     0.0790 N.pl3 1 <1>   0.3140 
  5 C        0.5100     2.9280     0.2440 C.2   1 <1>  -0.3320 
  6 C       -0.8530     2.9910     0.2970 C.2   1 <1>  -0.1500 
  7 H       -1.4810     3.8610     0.4210 H     1 <1>   0.1500 
  8 C        1.7340     3.7440     0.3050 C.3   1 <1>   0.1800 
  9 H        1.9520     4.0370     1.3370 H     1 <1>   0.0000 
 10 H        1.6830     4.6390    -0.3220 H     1 <1>   0.0000 
 11 C        2.8100     2.7500    -0.2170 C.3   1 <1>   0.0000 
 12 H        3.7790     2.8880     0.2710 H     1 <1>   0.0000 
 13 H        2.9590     2.9180    -1.2920 H     1 <1>   0.0000 
 14 C        2.2360     1.3360    -0.0030 C.3   1 <1>   0.2560 
 15 H        2.4300     0.6620    -0.8410 H     1 <1>   0.0000 
 16 H        2.5450     0.8970     0.9500 H     1 <1>   0.0000 
@<TRIPOS>BOND
  1   1   2  1   
  2   2   3  2   
  3   2   6  1   
  4   3   4  1   
  5   4   5  1   
  6   4  14  1   
  7   5   6  2   
  8   5   8  1   
  9   6   7  1   
 10   8   9  1   
 11   8  10  1   
 12   8  11  1   
 13  11  12  1   
 14  11  13  1   
 15  11  14  1   
 16  14  15  1   
 17  14  16  1   
@<TRIPOS>SUBSTRUCTURE
  1 ****   4 GROUP 4 **** **** 0

# MOE 2022.02 (io_trps.svl 2020.11)

@<TRIPOS>MOLECULE
UNP057
21 21 1 0 0 
SMALL
USER_CHARGES


@<TRIPOS>ATOM
  1 H       -0.3940    -1.1530    -0.2500 H     1 <1>   0.4000 
  2 O        0.3670    -1.7040     0.0020 O.3   1 <1>  -0.6800 
  3 C        1.5540    -0.9610    -0.2540 C.3   1 <1>   0.2800 
  4 H        1.6000    -0.7880    -1.3360 H     1 <1>   0.0000 
  5 C        1.5410     0.3880     0.4820 C.3   1 <1>   0.2800 
  6 H        1.0270     1.1380    -0.1320 H     1 <1>   0.0000 
  7 H        0.9690     0.3140     1.4140 H     1 <1>   0.0000 
  8 O        2.8380     0.8850     0.8160 O.3   1 <1>  -0.5600 
  9 C        3.8460     0.5140    -0.1270 C.3   1 <1>   0.2800 
 10 H        3.5430     0.8840    -1.1140 H     1 <1>   0.0000 
 11 H        4.7610     1.0400     0.1570 H     1 <1>   0.0000 
 12 C        4.0610    -1.0140    -0.1670 C.3   1 <1>   0.2800 
 13 H        4.3900    -1.2970    -1.1750 H     1 <1>   0.0000 
 14 O        5.0510    -1.4470     0.7760 O.3   1 <1>  -0.5600 
 15 C        6.3850    -1.2780     0.3170 C.3   1 <1>   0.2800 
 16 H        7.0630    -1.6320     1.0980 H     1 <1>   0.0000 
 17 H        6.5560    -1.8750    -0.5840 H     1 <1>   0.0000 
 18 H        6.6070    -0.2270     0.1170 H     1 <1>   0.0000 
 19 C        2.7700    -1.7680     0.1680 C.3   1 <1>   0.0000 
 20 H        2.7720    -2.7510    -0.3190 H     1 <1>   0.0000 
 21 H        2.7130    -1.9920     1.2420 H     1 <1>   0.0000 
@<TRIPOS>BOND
  1   1   2  1   
  2   2   3  1   
  3   3   4  1   
  4   3   5  1   
  5   3  19  1   
  6   5   6  1   
  7   5   7  1   
  8   5   8  1   
  9   8   9  1   
 10   9  10  1   
 11   9  11  1   
 12   9  12  1   
 13  12  13  1   
 14  12  14  1   
 15  12  19  1   
 16  14  15  1   
 17  15  16  1   
 18  15  17  1   
 19  15  18  1   
 20  19  20  1   
 21  19  21  1   
@<TRIPOS>SUBSTRUCTURE
  1 ****  12 GROUP 4 **** **** 0

# MOE 2022.02 (io_trps.svl 2020.11)

@<TRIPOS>MOLECULE
UNP058
9 8 1 0 0 
SMALL
USER_CHARGES


@<TRIPOS>ATOM
  1 H        2.7440    -2.0920     0.2310 H     1 <1>   0.0000 
  2 C        2.9490    -1.0500    -0.0280 C.3   1 <1>   0.4280 
  3 H        3.6430    -1.0730    -0.8740 H     1 <1>   0.0000 
  4 CL       3.7930    -0.3110     1.3530 Cl    1 <1>  -0.2900 
  5 C        1.7080    -0.2720    -0.3570 C.2   1 <1>   0.0020 
  6 CL       2.0150     1.0990    -1.3960 Cl    1 <1>  -0.1400 
  7 C        0.4630    -0.5810     0.0480 C.2   1 <1>   0.2800 
  8 CL       0.1420    -1.9450     1.0720 Cl    1 <1>  -0.1400 
  9 CL      -0.9330     0.3490    -0.3950 Cl    1 <1>  -0.1400 
@<TRIPOS>BOND
  1   1   2  1   
  2   2   3  1   
  3   2   4  1   
  4   2   5  1   
  5   5   6  1   
  6   5   7  2   
  7   7   8  1   
  8   7   9  1   
@<TRIPOS>SUBSTRUCTURE
  1 ****   5 GROUP 4 **** **** 0

# MOE 2022.02 (io_trps.svl 2020.11)

@<TRIPOS>MOLECULE
UNP059
29 29 1 0 0 
SMALL
USER_CHARGES


@<TRIPOS>ATOM
  1 H        2.2150    -0.7770    -2.4090 H     1 <1>   0.3600 
  2 N        2.0980    -1.2860    -1.5270 N.3   1 <1>  -0.9900 
  3 H        1.2930    -1.8900    -1.6990 H     1 <1>   0.3600 
  4 C        1.7470    -0.2990    -0.4870 C.3   1 <1>   0.3310 
  5 H        1.5340    -0.8400     0.4400 H     1 <1>   0.0000 
  6 C        0.4840     0.4560    -0.9280 C.2   1 <1>   0.5090 
  7 O        0.2760     0.7860    -2.0930 O.2   1 <1>  -0.5700 
  8 C       -0.4780     0.8270     0.1550 C.3   1 <1>   0.0530 
  9 C       -0.4830     2.2380     0.6650 C.3   1 <1>   0.0950 
 10 H        0.4430     2.4490     1.2090 H     1 <1>   0.0000 
 11 H       -0.5630     2.9460    -0.1670 H     1 <1>   0.0000 
 12 H       -1.3200     2.4240     1.3460 H     1 <1>   0.0000 
 13 O       -1.8120     0.3240    -0.0720 O.3   1 <1>  -0.2960 
 14 C       -1.0970    -0.2620     1.0160 C.3   1 <1>  -0.0520 
 15 H       -1.4230    -0.0160     2.0200 H     1 <1>   0.1000 
 16 H       -0.7810    -1.2920     0.8970 H     1 <1>   0.1000 
 17 C        2.8880     0.7060    -0.2610 C.3   1 <1>   0.0000 
 18 H        3.3020     1.0290    -1.2260 H     1 <1>   0.0000 
 19 H        2.4720     1.6160     0.1900 H     1 <1>   0.0000 
 20 C        4.0270     0.2070     0.6540 C.3   1 <1>   0.0000 
 21 H        3.5930    -0.0950     1.6160 H     1 <1>   0.0000 
 22 C        4.7910    -0.9870     0.0820 C.3   1 <1>   0.0000 
 23 H        5.1520    -0.7800    -0.9310 H     1 <1>   0.0000 
 24 H        4.1640    -1.8830     0.0520 H     1 <1>   0.0000 
 25 H        5.6590    -1.2280     0.7060 H     1 <1>   0.0000 
 26 C        5.0040     1.3550     0.9270 C.3   1 <1>   0.0000 
 27 H        5.7960     1.0380     1.6140 H     1 <1>   0.0000 
 28 H        5.4760     1.7030     0.0020 H     1 <1>   0.0000 
 29 H        4.4880     2.2040     1.3870 H     1 <1>   0.0000 
@<TRIPOS>BOND
  1   1   2  1   
  2   2   3  1   
  3   2   4  1   
  4   4   5  1   
  5   4   6  1   
  6   4  17  1   
  7   6   7  2   
  8   6   8  1   
  9   8   9  1   
 10   8  13  1   
 11   8  14  1   
 12   9  10  1   
 13   9  11  1   
 14   9  12  1   
 15  13  14  1   
 16  14  15  1   
 17  14  16  1   
 18  17  18  1   
 19  17  19  1   
 20  17  20  1   
 21  20  21  1   
 22  20  22  1   
 23  20  26  1   
 24  22  23  1   
 25  22  24  1   
 26  22  25  1   
 27  26  27  1   
 28  26  28  1   
 29  26  29  1   
@<TRIPOS>SUBSTRUCTURE
  1 ****   4 GROUP 4 **** **** 0

# MOE 2022.02 (io_trps.svl 2020.11)

@<TRIPOS>MOLECULE
UNP060
13 13 1 0 0 
SMALL
USER_CHARGES


@<TRIPOS>ATOM
  1 H        5.4310     0.3950    -0.1590 H     1 <1>   0.4000 
  2 O        4.9000    -0.0280     0.5390 O.3   1 <1>  -0.3000 
  3 N        3.5720     0.1200    -0.0290 N.3   1 <1>  -0.3700 
  4 N        2.7800     0.9390     0.8580 N.3   1 <1>  -0.4600 
  5 H        3.0570     1.9140     0.7640 H     1 <1>   0.3600 
  6 O        1.4160     1.0170     0.3450 O.3   1 <1>   0.2000 
  7 N        0.8220    -0.3190     0.3610 N.3   1 <1>  -0.4600 
  8 H       -0.0770    -0.1010    -0.0720 H     1 <1>   0.3600 
  9 N        1.5880    -1.2150    -0.5090 N.3   1 <1>  -0.6300 
 10 H        1.2260    -2.1650    -0.4230 H     1 <1>   0.3600 
 11 C        2.9850    -1.2410    -0.0210 C.3   1 <1>   0.5400 
 12 H        3.5650    -1.8780    -0.6980 H     1 <1>   0.0000 
 13 H        3.0300    -1.6950     0.9800 H     1 <1>   0.0000 
@<TRIPOS>BOND
  1   1   2  1   
  2   2   3  1   
  3   3   4  1   
  4   3  11  1   
  5   4   5  1   
  6   4   6  1   
  7   6   7  1   
  8   7   8  1   
  9   7   9  1   
 10   9  10  1   
 11   9  11  1   
 12  11  12  1   
 13  11  13  1   
@<TRIPOS>SUBSTRUCTURE
  1 ****   3 GROUP 4 **** **** 0

# MOE 2022.02 (io_trps.svl 2020.11)

@<TRIPOS>MOLECULE
UNP061
15 14 1 0 0 
SMALL
USER_CHARGES


@<TRIPOS>ATOM
  1 H        4.0720    -1.6750    -2.4140 H     1 <1>   0.0600 
  2 C        4.4160    -1.4570    -1.3890 C.2   1 <1>   0.4490 
  3 O        5.3860    -0.7320    -1.1910 O.2   1 <1>  -0.5700 
  4 C        3.5950    -2.0720    -0.2780 C.3   1 <1>   0.1990 
  5 H        3.4220    -3.1220    -0.5380 H     1 <1>   0.0000 
  6 H        4.1780    -2.0630     0.6490 H     1 <1>   0.0000 
  7 C        2.3050    -1.3060    -0.0990 C.2   1 <1>  -0.2760 
  8 C        1.1250    -1.8530    -0.4550 C.2   1 <1>  -0.0850 
  9 H        1.0910    -2.8490    -0.8860 H     1 <1>   0.1500 
 10 C       -0.1390    -1.2150    -0.3110 C.1   1 <1>   0.4920 
 11 N       -1.1750    -0.7050    -0.2020 N.1   1 <1>  -0.5570 
 12 C        2.4550     0.0600     0.5290 C.3   1 <1>   0.1380 
 13 H        2.9730    -0.0240     1.4900 H     1 <1>   0.0000 
 14 H        3.0380     0.7180    -0.1230 H     1 <1>   0.0000 
 15 H        1.4970     0.5530     0.7190 H     1 <1>   0.0000 
@<TRIPOS>BOND
  1   1   2  1   
  2   2   3  2   
  3   2   4  1   
  4   4   5  1   
  5   4   6  1   
  6   4   7  1   
  7   7   8  2   
  8   7  12  1   
  9   8   9  1   
 10   8  10  1   
 11  10  11  3   
 12  12  13  1   
 13  12  14  1   
 14  12  15  1   
@<TRIPOS>SUBSTRUCTURE
  1 ****   7 GROUP 4 **** **** 0

# MOE 2022.02 (io_trps.svl 2020.11)

@<TRIPOS>MOLECULE
UNP062
12 11 1 0 0 
SMALL
USER_CHARGES


@<TRIPOS>ATOM
  1 H        5.2500    -0.1430     0.9130 H     1 <1>   0.0600 
  2 C        4.4140    -0.5250     0.3070 C.2   1 <1>   0.5100 
  3 O        4.4630    -1.5120    -0.4120 O.2   1 <1>  -0.5700 
  4 C        3.1360     0.2760     0.4140 C.2   1 <1>   0.6300 
  5 O        3.1100     1.2640     1.1330 O.2   1 <1>  -0.5700 
  6 N        2.1130    -0.2390    -0.3520 N.am  1 <1>  -0.4900 
  7 H        2.3180    -1.0730    -0.8920 H     1 <1>   0.3700 
  8 C        0.8390     0.2250    -0.4870 C.2   1 <1>   0.6900 
  9 O        0.0260    -0.3390    -1.2100 O.2   1 <1>  -0.5700 
 10 N        0.5130     1.3330     0.2100 N.am  1 <1>  -0.8000 
 11 H        1.1850     1.8010     0.8100 H     1 <1>   0.3700 
 12 H       -0.4230     1.7040     0.1310 H     1 <1>   0.3700 
@<TRIPOS>BOND
  1   1   2  1   
  2   2   3  2   
  3   2   4  1   
  4   4   5  2   
  5   4   6  am  
  6   6   7  1   
  7   6   8  am  
  8   8   9  2   
  9   8  10  am  
 10  10  11  1   
 11  10  12  1   
@<TRIPOS>SUBSTRUCTURE
  1 ****   6 GROUP 4 **** **** 0

# MOE 2022.02 (io_trps.svl 2020.11)

@<TRIPOS>MOLECULE
UNP063
32 32 1 0 0 
SMALL
USER_CHARGES


@<TRIPOS>ATOM
  1 H        2.4130     1.4190    -2.2860 H     1 <1>   0.5000 
  2 O        2.6840     1.0250    -1.4280 O.3   1 <1>  -0.6500 
  3 C        2.0840    -0.1850    -1.4360 C.2   1 <1>   0.6590 
  4 O        1.3930    -0.5190    -2.3800 O.2   1 <1>  -0.5700 
  5 C        2.3600    -0.9570    -0.1590 C.3   1 <1>   0.0610 
  6 H        2.0880    -0.2890     0.6700 H     1 <1>   0.0000 
  7 C        1.4910    -2.2430    -0.0570 C.3   1 <1>   0.0000 
  8 H        1.2640    -2.6200    -1.0630 H     1 <1>   0.0000 
  9 C        0.1560    -2.0530     0.7090 C.3   1 <1>   0.0000 
 10 H        0.3790    -1.7080     1.7270 H     1 <1>   0.0000 
 11 C       -0.7500    -1.0060     0.0540 C.3   1 <1>   0.0000 
 12 H       -0.2900    -0.0140     0.0670 H     1 <1>   0.0000 
 13 H       -0.9770    -1.2700    -0.9840 H     1 <1>   0.0000 
 14 H       -1.7010    -0.9230     0.5940 H     1 <1>   0.0000 
 15 C       -0.6170    -3.3720     0.8270 C.3   1 <1>   0.0000 
 16 H       -1.5740    -3.2190     1.3380 H     1 <1>   0.0000 
 17 H       -0.8260    -3.7980    -0.1610 H     1 <1>   0.0000 
 18 H       -0.0580    -4.1130     1.4070 H     1 <1>   0.0000 
 19 C        2.4130    -3.2580     0.6240 C.3   1 <1>   0.0000 
 20 H        2.4270    -3.1160     1.7110 H     1 <1>   0.0000 
 21 H        2.1160    -4.2920     0.4210 H     1 <1>   0.0000 
 22 C        3.7760    -2.9530     0.0310 C.3   1 <1>   0.0000 
 23 H        3.8330    -3.3920    -0.9720 H     1 <1>   0.0000 
 24 H        4.5830    -3.3970     0.6230 H     1 <1>   0.0000 
 25 C        3.8410    -1.4170    -0.0120 C.3   1 <1>   0.0610 
 26 C        4.7490    -0.9460    -1.1460 C.2   1 <1>   0.4490 
 27 H        5.1670     0.0710    -1.0330 H     1 <1>   0.0600 
 28 O        4.9770    -1.5880    -2.1670 O.2   1 <1>  -0.5700 
 29 C        4.4370    -0.8730     1.2980 C.3   1 <1>   0.0000 
 30 H        5.4730    -1.2050     1.4280 H     1 <1>   0.0000 
 31 H        4.4450     0.2230     1.3010 H     1 <1>   0.0000 
 32 H        3.8660    -1.2040     2.1720 H     1 <1>   0.0000 
@<TRIPOS>BOND
  1   1   2  1   
  2   2   3  1   
  3   3   4  2   
  4   3   5  1   
  5   5   6  1   
  6   5   7  1   
  7   5  25  1   
  8   7   8  1   
  9   7   9  1   
 10   7  19  1   
 11   9  10  1   
 12   9  11  1   
 13   9  15  1   
 14  11  12  1   
 15  11  13  1   
 16  11  14  1   
 17  15  16  1   
 18  15  17  1   
 19  15  18  1   
 20  19  20  1   
 21  19  21  1   
 22  19  22  1   
 23  22  23  1   
 24  22  24  1   
 25  22  25  1   
 26  25  26  1   
 27  25  29  1   
 28  26  27  1   
 29  26  28  2   
 30  29  30  1   
 31  29  31  1   
 32  29  32  1   
@<TRIPOS>SUBSTRUCTURE
  1 ****   5 GROUP 4 **** **** 0

# MOE 2022.02 (io_trps.svl 2020.11)

@<TRIPOS>MOLECULE
UNP064
20 20 1 0 0 
SMALL
USER_CHARGES


@<TRIPOS>ATOM
  1 H        7.7020    -0.9570     0.3080 H     1 <1>   0.0600 
  2 C        7.2120     0.0090     0.0990 C.2   1 <1>   0.4240 
  3 O        7.8650     1.0290    -0.0760 O.2   1 <1>  -0.5700 
  4 C        5.7360     0.0030     0.0440 C.ar  1 <1>   0.0860 
  5 C        5.0460    -1.1940     0.2510 C.ar  1 <1>  -0.1500 
  6 H        5.5780    -2.1200     0.4530 H     1 <1>   0.1500 
  7 C        3.6480    -1.2060     0.2000 C.ar  1 <1>  -0.1500 
  8 H        3.1250    -2.1460     0.3630 H     1 <1>   0.1500 
  9 C        2.9380    -0.0240    -0.0580 C.ar  1 <1>   0.0860 
 10 C        1.4510     0.0170    -0.1240 C.2   1 <1>   0.6340 
 11 O        0.8160     1.0300    -0.3720 O.2   1 <1>  -0.5700 
 12 O        0.9270    -1.2080     0.1290 O.3   1 <1>  -0.4300 
 13 C       -0.5000    -1.2480     0.0860 C.3   1 <1>   0.2800 
 14 H       -0.9270    -0.5730     0.8350 H     1 <1>   0.0000 
 15 H       -0.8600    -0.9940    -0.9160 H     1 <1>   0.0000 
 16 H       -0.8170    -2.2680     0.3210 H     1 <1>   0.0000 
 17 C        3.6420     1.1720    -0.2660 C.ar  1 <1>  -0.1500 
 18 H        3.1060     2.0980    -0.4670 H     1 <1>   0.1500 
 19 C        5.0380     1.1860    -0.2150 C.ar  1 <1>  -0.1500 
 20 H        5.5760     2.1190    -0.3760 H     1 <1>   0.1500 
@<TRIPOS>BOND
  1   1   2  1   
  2   2   3  2   
  3   2   4  1   
  4   4   5  ar  
  5   4  19  ar  
  6   5   6  1   
  7   5   7  ar  
  8   7   8  1   
  9   7   9  ar  
 10   9  10  1   
 11   9  17  ar  
 12  10  11  2   
 13  10  12  1   
 14  12  13  1   
 15  13  14  1   
 16  13  15  1   
 17  13  16  1   
 18  17  18  1   
 19  17  19  ar  
 20  19  20  1   
@<TRIPOS>SUBSTRUCTURE
  1 ****   9 GROUP 4 **** **** 0

# MOE 2022.02 (io_trps.svl 2020.11)

@<TRIPOS>MOLECULE
UNP065
29 29 1 0 0 
SMALL
USER_CHARGES


@<TRIPOS>ATOM
  1 H       -5.4620     3.5820    -1.3830 H     1 <1>   0.1500 
  2 C       -5.0910     2.7980    -0.7270 C.ar  1 <1>  -0.1500 
  3 C       -3.7300     2.7590    -0.4110 C.ar  1 <1>  -0.1500 
  4 H       -3.0760     3.5170    -0.8350 H     1 <1>   0.1500 
  5 C       -3.2200     1.7690     0.4410 C.ar  1 <1>  -0.1440 
  6 C       -1.7410     1.6970     0.7930 C.3   1 <1>   0.1440 
  7 H       -1.5950     0.8540     1.4830 H     1 <1>   0.0000 
  8 C       -1.2990     2.9650     1.5350 C.3   1 <1>   0.0000 
  9 H       -0.2630     2.8830     1.8780 H     1 <1>   0.0000 
 10 H       -1.3670     3.8550     0.9000 H     1 <1>   0.0000 
 11 H       -1.9260     3.1390     2.4170 H     1 <1>   0.0000 
 12 C       -0.8970     1.4490    -0.4680 C.3   1 <1>   0.0610 
 13 H       -1.3570     0.6650    -1.0840 H     1 <1>   0.0000 
 14 H       -0.8370     2.3600    -1.0750 H     1 <1>   0.0000 
 15 C        0.5180     0.9870    -0.1680 C.2   1 <1>   0.4480 
 16 O        0.8920     0.6600     0.9570 O.2   1 <1>  -0.5700 
 17 C        1.4570     0.9180    -1.3450 C.3   1 <1>   0.0610 
 18 H        2.4400     0.5700    -1.0120 H     1 <1>   0.0000 
 19 H        1.5660     1.9110    -1.7860 H     1 <1>   0.0000 
 20 H        1.0660     0.2160    -2.0850 H     1 <1>   0.0000 
 21 C       -4.1070     0.8220     0.9710 C.ar  1 <1>  -0.1500 
 22 H       -3.7470     0.0440     1.6410 H     1 <1>   0.1500 
 23 C       -5.4680     0.8600     0.6550 C.ar  1 <1>  -0.1500 
 24 H       -6.1340     0.1170     1.0880 H     1 <1>   0.1500 
 25 C       -5.9690     1.8410    -0.2070 C.ar  1 <1>  -0.1440 
 26 C       -7.4330     1.9060    -0.5220 C.3   1 <1>   0.1440 
 27 H       -7.9360     2.5850     0.1730 H     1 <1>   0.0000 
 28 H       -7.5950     2.2600    -1.5460 H     1 <1>   0.0000 
 29 H       -7.8960     0.9160    -0.4450 H     1 <1>   0.0000 
@<TRIPOS>BOND
  1   1   2  1   
  2   2   3  ar  
  3   2  25  ar  
  4   3   4  1   
  5   3   5  ar  
  6   5   6  1   
  7   5  21  ar  
  8   6   7  1   
  9   6   8  1   
 10   6  12  1   
 11   8   9  1   
 12   8  10  1   
 13   8  11  1   
 14  12  13  1   
 15  12  14  1   
 16  12  15  1   
 17  15  16  2   
 18  15  17  1   
 19  17  18  1   
 20  17  19  1   
 21  17  20  1   
 22  21  22  1   
 23  21  23  ar  
 24  23  24  1   
 25  23  25  ar  
 26  25  26  1   
 27  26  27  1   
 28  26  28  1   
 29  26  29  1   
@<TRIPOS>SUBSTRUCTURE
  1 ****   5 GROUP 4 **** **** 0

# MOE 2022.02 (io_trps.svl 2020.11)

@<TRIPOS>MOLECULE
UNP066
26 27 1 0 0 
SMALL
USER_CHARGES


@<TRIPOS>ATOM
  1 H        2.5350     3.5060    -1.1460 H     1 <1>   0.0600 
  2 C        3.5010     3.0110    -0.9600 C.2   1 <1>   0.4960 
  3 O        4.5000     3.2900    -1.6160 O.2   1 <1>  -0.5700 
  4 C        3.5420     1.9830     0.1160 C.2   1 <1>  -0.1240 
  5 C        2.4560     1.6770     0.8500 C.2   1 <1>  -0.1780 
  6 H        2.5180     0.9090     1.6200 H     1 <1>   0.1500 
  7 C        1.1280     2.2750     0.7070 C.ar  1 <1>   0.0280 
  8 C        0.8320     3.4990     1.3440 C.ar  1 <1>  -0.1500 
  9 H        1.5830     3.9980     1.9520 H     1 <1>   0.1500 
 10 C       -0.4300     4.0870     1.2050 C.ar  1 <1>  -0.1500 
 11 H       -0.6700     5.0270     1.6900 H     1 <1>   0.1500 
 12 C       -1.3620     3.4300     0.4310 C.ar  1 <1>   0.0820 
 13 C       -1.0760     2.2360    -0.1890 C.ar  1 <1>   0.0820 
 14 C        0.1580     1.6310    -0.0720 C.ar  1 <1>  -0.1500 
 15 H        0.3580     0.6890    -0.5710 H     1 <1>   0.1500 
 16 O       -2.1300     1.7570    -0.9030 O.3   1 <1>  -0.3630 
 17 C       -3.1130     2.7850    -0.6590 C.3   1 <1>   0.5600 
 18 H       -3.4210     3.2110    -1.6210 H     1 <1>   0.0000 
 19 H       -3.9870     2.3270    -0.1810 H     1 <1>   0.0000 
 20 O       -2.6300     3.8510     0.1850 O.3   1 <1>  -0.3630 
 21 C        4.8740     1.3210     0.3280 C.3   1 <1>   0.1990 
 22 H        4.8820     0.7100     1.2380 H     1 <1>   0.0000 
 23 H        5.6810     2.0530     0.4300 H     1 <1>   0.0000 
 24 C        5.1730     0.4160    -0.8420 C.2   1 <1>   0.4490 
 25 H        5.7090     0.8810    -1.6870 H     1 <1>   0.0600 
 26 O        4.8040    -0.7550    -0.8970 O.2   1 <1>  -0.5700 
@<TRIPOS>BOND
  1   1   2  1   
  2   2   3  2   
  3   2   4  1   
  4   4   5  2   
  5   4  21  1   
  6   5   6  1   
  7   5   7  1   
  8   7   8  ar  
  9   7  14  ar  
 10   8   9  1   
 11   8  10  ar  
 12  10  11  1   
 13  10  12  ar  
 14  12  13  ar  
 15  12  20  1   
 16  13  14  ar  
 17  13  16  1   
 18  14  15  1   
 19  16  17  1   
 20  17  18  1   
 21  17  19  1   
 22  17  20  1   
 23  21  22  1   
 24  21  23  1   
 25  21  24  1   
 26  24  25  1   
 27  24  26  2   
@<TRIPOS>SUBSTRUCTURE
  1 ****   7 GROUP 4 **** **** 0

# MOE 2022.02 (io_trps.svl 2020.11)

@<TRIPOS>MOLECULE
UNP067
11 10 1 0 0 
SMALL
USER_CHARGES


@<TRIPOS>ATOM
  1 H       -0.5690     0.7180     0.5020 H     1 <1>   0.5000 
  2 O        0.1500     0.0780     0.3150 O.3   1 <1>  -0.6500 
  3 C        1.2520     0.8380     0.1620 C.2   1 <1>   0.6590 
  4 O        1.1920     2.0500     0.2680 O.2   1 <1>  -0.5700 
  5 C        2.4670     0.0100    -0.1340 C.3   1 <1>   0.0610 
  6 H        2.6180    -0.6910     0.6940 H     1 <1>   0.0000 
  7 H        2.2820    -0.5610    -1.0510 H     1 <1>   0.0000 
  8 C        3.6780     0.9020    -0.3010 C.3   1 <1>   0.2300 
  9 H        3.9040     1.4690     0.6070 H     1 <1>   0.0000 
 10 H        3.5670     1.5980    -1.1380 H     1 <1>   0.0000 
 11 BR       5.2470    -0.1860    -0.6840 Br    1 <1>  -0.2300 
@<TRIPOS>BOND
  1   1   2  1   
  2   2   3  1   
  3   3   4  2   
  4   3   5  1   
  5   5   6  1   
  6   5   7  1   
  7   5   8  1   
  8   8   9  1   
  9   8  10  1   
 10   8  11  1   
@<TRIPOS>SUBSTRUCTURE
  1 ****   5 GROUP 4 **** **** 0

# MOE 2022.02 (io_trps.svl 2020.11)

@<TRIPOS>MOLECULE
UNP068
10 9 1 0 0 
SMALL
USER_CHARGES


@<TRIPOS>ATOM
  1 H        3.5280    -0.6190     1.1770 H     1 <1>   0.0000 
  2 C        3.6860    -1.0880     0.2000 C.3   1 <1>   0.0000 
  3 H        4.5950    -1.6960     0.2550 H     1 <1>   0.0000 
  4 H        3.8530    -0.2890    -0.5290 H     1 <1>   0.0000 
  5 C        2.4990    -1.9470    -0.1890 C.3   1 <1>   0.0610 
  6 H        2.6650    -2.4210    -1.1620 H     1 <1>   0.0000 
  7 H        2.3630    -2.7570     0.5370 H     1 <1>   0.0000 
  8 C        1.2290    -1.1250    -0.2160 C.2   1 <1>   0.7180 
  9 O        0.5410    -0.9770     0.7910 O.2   1 <1>  -0.5700 
 10 CL       0.9140    -0.4220    -1.7760 Cl    1 <1>  -0.2090 
@<TRIPOS>BOND
  1   1   2  1   
  2   2   3  1   
  3   2   4  1   
  4   2   5  1   
  5   5   6  1   
  6   5   7  1   
  7   5   8  1   
  8   8   9  2   
  9   8  10  1   
@<TRIPOS>SUBSTRUCTURE
  1 ****   8 GROUP 4 **** **** 0

# MOE 2022.02 (io_trps.svl 2020.11)

@<TRIPOS>MOLECULE
UNP069
30 29 1 0 0 
SMALL
USER_CHARGES


@<TRIPOS>ATOM
  1 H        1.3370     3.6890     0.7940 H     1 <1>   0.5000 
  2 O        1.5920     3.0530     0.0920 O.3   1 <1>  -0.6500 
  3 C        1.9650     1.9440     0.7550 C.2   1 <1>   0.6590 
  4 O        1.9440     1.9060     1.9740 O.2   1 <1>  -0.5700 
  5 C        2.3560     0.8120    -0.1700 C.3   1 <1>   0.0610 
  6 H        2.6800     1.2460    -1.1260 H     1 <1>   0.0000 
  7 C        3.5590     0.0440     0.4160 C.3   1 <1>   0.1380 
  8 H        3.7160    -0.8770    -0.1590 H     1 <1>   0.0000 
  9 H        3.3650    -0.2680     1.4490 H     1 <1>   0.0000 
 10 C        4.8260     0.8570     0.4110 C.2   1 <1>  -0.2880 
 11 H        4.8800     1.6840     1.1180 H     1 <1>   0.1500 
 12 C        5.8760     0.5980    -0.3850 C.2   1 <1>  -0.2880 
 13 H        5.8320    -0.2320    -1.0870 H     1 <1>   0.1500 
 14 C        7.1500     1.3930    -0.3890 C.3   1 <1>   0.2760 
 15 H        7.3020     1.8020    -1.3950 H     1 <1>   0.0000 
 16 H        7.0810     2.2510     0.2910 H     1 <1>   0.0000 
 17 C        8.3150     0.5450     0.0280 C.2   1 <1>  -0.2880 
 18 H        8.2980     0.1580     1.0450 H     1 <1>   0.1500 
 19 C        9.3580     0.2520    -0.7590 C.2   1 <1>  -0.3000 
 20 H       10.1720    -0.3670    -0.3940 H     1 <1>   0.1500 
 21 H        9.4230     0.6160    -1.7800 H     1 <1>   0.1500 
 22 C        1.1540    -0.1220    -0.4250 C.3   1 <1>   0.0610 
 23 H        1.5140    -1.0440    -0.8990 H     1 <1>   0.0000 
 24 C        0.4740    -0.5490     0.8690 C.2   1 <1>   0.4490 
 25 H        1.1320    -1.0040     1.6280 H     1 <1>   0.0600 
 26 O       -0.7330    -0.4650     1.0730 O.2   1 <1>  -0.5700 
 27 C        0.1410     0.5110    -1.3810 C.3   1 <1>   0.0000 
 28 H       -0.3380     1.3930    -0.9420 H     1 <1>   0.0000 
 29 H        0.6210     0.8110    -2.3190 H     1 <1>   0.0000 
 30 H       -0.6550    -0.2010    -1.6280 H     1 <1>   0.0000 
@<TRIPOS>BOND
  1   1   2  1   
  2   2   3  1   
  3   3   4  2   
  4   3   5  1   
  5   5   6  1   
  6   5   7  1   
  7   5  22  1   
  8   7   8  1   
  9   7   9  1   
 10   7  10  1   
 11  10  11  1   
 12  10  12  2   
 13  12  13  1   
 14  12  14  1   
 15  14  15  1   
 16  14  16  1   
 17  14  17  1   
 18  17  18  1   
 19  17  19  2   
 20  19  20  1   
 21  19  21  1   
 22  22  23  1   
 23  22  24  1   
 24  22  27  1   
 25  24  25  1   
 26  24  26  2   
 27  27  28  1   
 28  27  29  1   
 29  27  30  1   
@<TRIPOS>SUBSTRUCTURE
  1 ****   7 GROUP 4 **** **** 0

# MOE 2022.02 (io_trps.svl 2020.11)

@<TRIPOS>MOLECULE
UNP070
37 36 1 0 0 
SMALL
USER_CHARGES


@<TRIPOS>ATOM
  1 H       10.7690     0.7150    -0.3480 H     1 <1>   0.0600 
  2 C       10.4860     1.6200     0.2180 C.2   1 <1>   0.4490 
  3 O       11.1310     1.9710     1.2010 O.2   1 <1>  -0.5700 
  4 C        9.2700     2.3640    -0.2870 C.3   1 <1>   0.0610 
  5 H        9.1400     3.2550     0.3390 H     1 <1>   0.0000 
  6 C        9.5330     2.7990    -1.7260 C.3   1 <1>   0.0000 
  7 H       10.4640     3.3720    -1.7930 H     1 <1>   0.0000 
  8 H        9.6320     1.9350    -2.3930 H     1 <1>   0.0000 
  9 H        8.7250     3.4330    -2.1050 H     1 <1>   0.0000 
 10 C        8.0530     1.4410    -0.1460 C.3   1 <1>   0.1380 
 11 H        8.1610     0.5680    -0.8030 H     1 <1>   0.0000 
 12 H        8.0210     1.0390     0.8760 H     1 <1>   0.0000 
 13 C        6.7530     2.1210    -0.4710 C.2   1 <1>  -0.2880 
 14 H        6.5750     2.3710    -1.5150 H     1 <1>   0.1500 
 15 C        5.8150     2.4080     0.4460 C.2   1 <1>  -0.2880 
 16 H        5.9900     2.1520     1.4910 H     1 <1>   0.1500 
 17 C        4.4970     3.0790     0.1280 C.3   1 <1>   0.1380 
 18 H        4.4450     3.2750    -0.9510 H     1 <1>   0.0000 
 19 C        4.4360     4.4260     0.8490 C.3   1 <1>   0.0000 
 20 H        5.3280     5.0270     0.6370 H     1 <1>   0.0000 
 21 H        3.5720     5.0100     0.5180 H     1 <1>   0.0000 
 22 H        4.3690     4.2980     1.9350 H     1 <1>   0.0000 
 23 C        3.3370     2.1310     0.5030 C.3   1 <1>   0.0000 
 24 H        3.3770     1.8950     1.5750 H     1 <1>   0.0000 
 25 H        3.5120     1.1790    -0.0190 H     1 <1>   0.0000 
 26 C        1.9400     2.6670     0.1340 C.3   1 <1>   0.0610 
 27 H        2.0340     3.4030    -0.6730 H     1 <1>   0.0000 
 28 C        1.0590     1.5340    -0.3900 C.2   1 <1>   0.4480 
 29 O        1.0280     0.4270     0.1470 O.2   1 <1>  -0.5700 
 30 C        0.1840     1.8480    -1.5760 C.3   1 <1>   0.0610 
 31 H        0.8090     2.1400    -2.4230 H     1 <1>   0.0000 
 32 H       -0.5080     2.6540    -1.3200 H     1 <1>   0.0000 
 33 H       -0.3920     0.9610    -1.8540 H     1 <1>   0.0000 
 34 C        1.2210     3.3050     1.3210 C.3   1 <1>   0.0000 
 35 H        1.7820     4.1480     1.7310 H     1 <1>   0.0000 
 36 H        1.0650     2.5790     2.1280 H     1 <1>   0.0000 
 37 H        0.2330     3.6740     1.0240 H     1 <1>   0.0000 
@<TRIPOS>BOND
  1   1   2  1   
  2   2   3  2   
  3   2   4  1   
  4   4   5  1   
  5   4   6  1   
  6   4  10  1   
  7   6   7  1   
  8   6   8  1   
  9   6   9  1   
 10  10  11  1   
 11  10  12  1   
 12  10  13  1   
 13  13  14  1   
 14  13  15  2   
 15  15  16  1   
 16  15  17  1   
 17  17  18  1   
 18  17  19  1   
 19  17  23  1   
 20  19  20  1   
 21  19  21  1   
 22  19  22  1   
 23  23  24  1   
 24  23  25  1   
 25  23  26  1   
 26  26  27  1   
 27  26  28  1   
 28  26  34  1   
 29  28  29  2   
 30  28  30  1   
 31  30  31  1   
 32  30  32  1   
 33  30  33  1   
 34  34  35  1   
 35  34  36  1   
 36  34  37  1   
@<TRIPOS>SUBSTRUCTURE
  1 ****  15 GROUP 4 **** **** 0

# MOE 2022.02 (io_trps.svl 2020.11)

@<TRIPOS>MOLECULE
UNP071
55 54 1 0 0 
SMALL
USER_CHARGES


@<TRIPOS>ATOM
  1 H       21.7930     0.0070    -1.2170 H     1 <1>   0.0000 
  2 C       22.0420    -0.8900    -0.6420 C.3   1 <1>   0.2000 
  3 H       22.7980    -1.4520    -1.1980 H     1 <1>   0.0000 
  4 H       22.4840    -0.5730     0.3070 H     1 <1>   0.0000 
  5 C       20.8500    -1.7070    -0.4120 C.1   1 <1>  -0.2000 
  6 C       19.8700    -2.3760    -0.2230 C.1   1 <1>  -0.2000 
  7 C       18.6740    -3.1990     0.0130 C.3   1 <1>   0.2000 
  8 H       18.6950    -3.5870     1.0380 H     1 <1>   0.0000 
  9 H       18.6880    -4.0650    -0.6600 H     1 <1>   0.0000 
 10 C       17.3960    -2.3900    -0.2100 C.3   1 <1>   0.0000 
 11 H       17.3750    -2.0060    -1.2380 H     1 <1>   0.0000 
 12 H       17.3910    -1.5150     0.4530 H     1 <1>   0.0000 
 13 C       16.1480    -3.2350     0.0490 C.3   1 <1>   0.0000 
 14 H       16.1680    -3.6130     1.0780 H     1 <1>   0.0000 
 15 H       16.1500    -4.1080    -0.6160 H     1 <1>   0.0000 
 16 C       14.8710    -2.4240    -0.1740 C.3   1 <1>   0.0000 
 17 H       14.8460    -2.0550    -1.2070 H     1 <1>   0.0000 
 18 H       14.8750    -1.5460     0.4830 H     1 <1>   0.0000 
 19 C       13.6210    -3.2620     0.1010 C.3   1 <1>   0.0000 
 20 H       13.6120    -4.1380    -0.5590 H     1 <1>   0.0000 
 21 H       13.6500    -3.6340     1.1330 H     1 <1>   0.0000 
 22 C       12.3460    -2.4450    -0.1130 C.3   1 <1>   0.0000 
 23 H       12.3080    -2.0890    -1.1500 H     1 <1>   0.0000 
 24 H       12.3660    -1.5590     0.5330 H     1 <1>   0.0000 
 25 C       11.0960    -3.2720     0.1920 C.3   1 <1>   0.0000 
 26 H       11.1370    -3.6290     1.2280 H     1 <1>   0.0000 
 27 H       11.0750    -4.1570    -0.4550 H     1 <1>   0.0000 
 28 C        9.8190    -2.4510    -0.0170 C.3   1 <1>   0.0000 
 29 H        9.7670    -2.1190    -1.0610 H     1 <1>   0.0000 
 30 H        9.8730    -1.5550     0.6110 H     1 <1>   0.0000 
 31 C        8.5700    -3.2760     0.3280 C.3   1 <1>   0.2700 
 32 H        8.5940    -3.5590     1.3890 H     1 <1>   0.0000 
 33 H        8.6370    -4.2070    -0.2460 H     1 <1>   0.0000 
 34 N        7.3060    -2.5850     0.0030 N.3   1 <1>  -0.8100 
 35 C        7.1130    -1.4050     0.8560 C.3   1 <1>   0.2700 
 36 H        7.1100    -1.6640     1.9220 H     1 <1>   0.0000 
 37 H        7.8870    -0.6530     0.6790 H     1 <1>   0.0000 
 38 H        6.1640    -0.9100     0.6210 H     1 <1>   0.0000 
 39 C        6.1460    -3.4910     0.1580 C.3   1 <1>   0.2700 
 40 H        5.2240    -2.8960     0.1560 H     1 <1>   0.0000 
 41 H        6.1750    -3.9980     1.1320 H     1 <1>   0.0000 
 42 C        6.0110    -4.5200    -0.9850 C.3   1 <1>   0.3000 
 43 H        6.9000    -5.1520    -1.0480 H     1 <1>   0.0000 
 44 H        5.9270    -4.0050    -1.9500 H     1 <1>   0.0000 
 45 N        4.8300    -5.3790    -0.8210 N.am  1 <1>  -0.6600 
 46 C        4.8370    -6.6130    -0.1840 C.2   1 <1>   0.5690 
 47 O        3.8260    -7.3030    -0.0520 O.2   1 <1>  -0.5700 
 48 C        6.1570    -7.1090     0.3520 C.3   1 <1>   0.0610 
 49 H        5.9920    -8.0210     0.9340 H     1 <1>   0.0000 
 50 H        6.6140    -6.3670     1.0110 H     1 <1>   0.0000 
 51 H        6.8300    -7.3460    -0.4760 H     1 <1>   0.0000 
 52 C        3.5750    -4.8690    -1.3550 C.3   1 <1>   0.3000 
 53 H        3.6950    -4.7000    -2.4300 H     1 <1>   0.0000 
 54 H        3.3350    -3.9230    -0.8630 H     1 <1>   0.0000 
 55 H        2.7460    -5.5640    -1.2020 H     1 <1>   0.0000 
@<TRIPOS>BOND
  1   1   2  1   
  2   2   3  1   
  3   2   4  1   
  4   2   5  1   
  5   5   6  3   
  6   6   7  1   
  7   7   8  1   
  8   7   9  1   
  9   7  10  1   
 10  10  11  1   
 11  10  12  1   
 12  10  13  1   
 13  13  14  1   
 14  13  15  1   
 15  13  16  1   
 16  16  17  1   
 17  16  18  1   
 18  16  19  1   
 19  19  20  1   
 20  19  21  1   
 21  19  22  1   
 22  22  23  1   
 23  22  24  1   
 24  22  25  1   
 25  25  26  1   
 26  25  27  1   
 27  25  28  1   
 28  28  29  1   
 29  28  30  1   
 30  28  31  1   
 31  31  32  1   
 32  31  33  1   
 33  31  34  1   
 34  34  35  1   
 35  34  39  1   
 36  35  36  1   
 37  35  37  1   
 38  35  38  1   
 39  39  40  1   
 40  39  41  1   
 41  39  42  1   
 42  42  43  1   
 43  42  44  1   
 44  42  45  1   
 45  45  46  am  
 46  45  52  1   
 47  46  47  2   
 48  46  48  1   
 49  48  49  1   
 50  48  50  1   
 51  48  51  1   
 52  52  53  1   
 53  52  54  1   
 54  52  55  1   
@<TRIPOS>SUBSTRUCTURE
  1 ****  25 GROUP 4 **** **** 0

# MOE 2022.02 (io_trps.svl 2020.11)

@<TRIPOS>MOLECULE
UNP072
39 40 1 0 0 
SMALL
USER_CHARGES


@<TRIPOS>ATOM
  1 H        0.2350    -2.9210     0.6340 H     1 <1>   0.4000 
  2 O        0.7620    -3.7310     0.5110 O.3   1 <1>  -0.6800 
  3 C        1.7870    -3.4060    -0.4360 C.3   1 <1>   0.4180 
  4 C        1.1720    -3.5240    -1.8320 C.3   1 <1>   0.0000 
  5 H        0.3060    -2.8620    -1.9400 H     1 <1>   0.0000 
  6 H        0.7990    -4.5390    -2.0150 H     1 <1>   0.0000 
  7 H        1.8980    -3.2810    -2.6160 H     1 <1>   0.0000 
  8 C        2.8610    -4.4420    -0.2280 C.2   1 <1>  -0.2880 
  9 H        2.6570    -5.4510    -0.5770 H     1 <1>   0.1500 
 10 C        4.0310    -4.1810     0.3760 C.2   1 <1>  -0.2880 
 11 H        4.7680    -4.9740     0.4850 H     1 <1>   0.1500 
 12 C        4.3890    -2.8450     0.9670 C.3   1 <1>   0.4180 
 13 H        4.8280    -2.9720     1.9630 H     1 <1>   0.0000 
 14 O        5.3150    -2.2040     0.0730 O.3   1 <1>  -0.4300 
 15 C        6.6290    -2.4580     0.2800 C.2   1 <1>   0.6340 
 16 O        7.0950    -3.1630     1.1620 O.2   1 <1>  -0.5700 
 17 C        7.4560    -1.7520    -0.7360 C.ar  1 <1>   0.0860 
 18 C        6.8920    -0.9580    -1.7450 C.ar  1 <1>  -0.1500 
 19 H        5.8160    -0.8270    -1.8220 H     1 <1>   0.1500 
 20 C        7.7140    -0.3190    -2.6760 C.ar  1 <1>  -0.1500 
 21 H        7.2740     0.2960    -3.4570 H     1 <1>   0.1500 
 22 C        9.0990    -0.4700    -2.6060 C.ar  1 <1>  -0.1500 
 23 H        9.7360     0.0280    -3.3320 H     1 <1>   0.1500 
 24 C        9.6660    -1.2590    -1.6060 C.ar  1 <1>  -0.1500 
 25 H       10.7460    -1.3770    -1.5520 H     1 <1>   0.1500 
 26 C        8.8480    -1.8990    -0.6730 C.ar  1 <1>  -0.1500 
 27 H        9.3010    -2.5130     0.1030 H     1 <1>   0.1500 
 28 C        3.1700    -1.9250     1.1000 C.3   1 <1>   0.0000 
 29 H        3.4890    -0.8920     1.2850 H     1 <1>   0.0000 
 30 H        2.5630    -2.2200     1.9660 H     1 <1>   0.0000 
 31 C        2.3130    -1.9660    -0.1710 C.3   1 <1>   0.2800 
 32 H        2.9360    -1.6340    -1.0120 H     1 <1>   0.0000 
 33 O        1.1930    -1.0700     0.0390 O.3   1 <1>  -0.4300 
 34 C        0.9170    -0.1960    -0.9680 C.2   1 <1>   0.6590 
 35 O        1.5050    -0.1320    -2.0370 O.2   1 <1>  -0.5700 
 36 C       -0.2330     0.6820    -0.5800 C.3   1 <1>   0.0610 
 37 H        0.0190     1.2480     0.3200 H     1 <1>   0.0000 
 38 H       -0.4390     1.3890    -1.3890 H     1 <1>   0.0000 
 39 H       -1.1250     0.0720    -0.4140 H     1 <1>   0.0000 
@<TRIPOS>BOND
  1   1   2  1   
  2   2   3  1   
  3   3   4  1   
  4   3   8  1   
  5   3  31  1   
  6   4   5  1   
  7   4   6  1   
  8   4   7  1   
  9   8   9  1   
 10   8  10  2   
 11  10  11  1   
 12  10  12  1   
 13  12  13  1   
 14  12  14  1   
 15  12  28  1   
 16  14  15  1   
 17  15  16  2   
 18  15  17  1   
 19  17  18  ar  
 20  17  26  ar  
 21  18  19  1   
 22  18  20  ar  
 23  20  21  1   
 24  20  22  ar  
 25  22  23  1   
 26  22  24  ar  
 27  24  25  1   
 28  24  26  ar  
 29  26  27  1   
 30  28  29  1   
 31  28  30  1   
 32  28  31  1   
 33  31  32  1   
 34  31  33  1   
 35  33  34  1   
 36  34  35  2   
 37  34  36  1   
 38  36  37  1   
 39  36  38  1   
 40  36  39  1   
@<TRIPOS>SUBSTRUCTURE
  1 ****  14 GROUP 4 **** **** 0

# MOE 2022.02 (io_trps.svl 2020.11)

@<TRIPOS>MOLECULE
UNP073
17 17 1 0 0 
SMALL
USER_CHARGES


@<TRIPOS>ATOM
  1 H        6.0200     1.7660    -0.7390 H     1 <1>   0.4000 
  2 O        5.1930     1.2680    -0.6340 O.3   1 <1>  -0.6800 
  3 C        4.1810     2.2260    -0.3460 C.3   1 <1>   0.4180 
  4 H        4.1770     2.9720    -1.1470 H     1 <1>   0.0000 
  5 H        4.4340     2.7160     0.5990 H     1 <1>   0.0000 
  6 C        2.8570     1.5590    -0.2440 C.2   1 <1>  -0.2760 
  7 C        2.5320     0.2790    -0.4430 C.2   1 <1>  -0.2880 
  8 H        3.2180    -0.5030    -0.7330 H     1 <1>   0.1500 
  9 C        1.0890     0.0840    -0.1910 C.3   1 <1>   0.4180 
 10 H        0.9100    -0.5650     0.6710 H     1 <1>   0.0000 
 11 H        0.5720    -0.3190    -1.0660 H     1 <1>   0.0000 
 12 O        0.5610     1.3930     0.0920 O.3   1 <1>  -0.5600 
 13 C        1.6490     2.3160     0.1720 C.3   1 <1>   0.6880 
 14 H        1.7410     2.6560     1.2090 H     1 <1>   0.0000 
 15 N        1.3570     3.4280    -0.7000 N.3   1 <1>  -0.9900 
 16 H        0.4610     3.7990    -0.3870 H     1 <1>   0.3600 
 17 H        1.1470     3.0220    -1.6110 H     1 <1>   0.3600 
@<TRIPOS>BOND
  1   1   2  1   
  2   2   3  1   
  3   3   4  1   
  4   3   5  1   
  5   3   6  1   
  6   6   7  2   
  7   6  13  1   
  8   7   8  1   
  9   7   9  1   
 10   9  10  1   
 11   9  11  1   
 12   9  12  1   
 13  12  13  1   
 14  13  14  1   
 15  13  15  1   
 16  15  16  1   
 17  15  17  1   
@<TRIPOS>SUBSTRUCTURE
  1 ****   6 GROUP 4 **** **** 0

# MOE 2022.02 (io_trps.svl 2020.11)

@<TRIPOS>MOLECULE
UNP074
5 4 1 0 0 
SMALL
USER_CHARGES


@<TRIPOS>ATOM
  1 H       -0.2930    -0.9400    -0.0040 H     1 <1>   0.4000 
  2 N        0.0980     0.0100    -0.0050 N.2   1 <1>  -0.8500 
  3 C        1.3830    -0.0410    -0.0060 C.2   1 <1>   0.3300 
  4 H        1.9270    -1.0000    -0.0060 H     1 <1>   0.0600 
  5 H        1.9820     0.8830    -0.0070 H     1 <1>   0.0600 
@<TRIPOS>BOND
  1   1   2  1   
  2   2   3  2   
  3   3   4  1   
  4   3   5  1   
@<TRIPOS>SUBSTRUCTURE
  1 ****   3 GROUP 4 **** **** 0

# MOE 2022.02 (io_trps.svl 2020.11)

@<TRIPOS>MOLECULE
UNP075
17 17 1 0 0 
SMALL
USER_CHARGES


@<TRIPOS>ATOM
  1 H       -0.0610     0.8690     0.3790 H     1 <1>   0.4500 
  2 O        0.2800    -0.0300     0.2440 O.3   1 <1>  -0.5320 
  3 C        1.6470    -0.0020     0.2080 C.ar  1 <1>   0.0820 
  4 C        2.3190     1.2090     0.3580 C.ar  1 <1>  -0.1500 
  5 H        1.7640     2.1310     0.5030 H     1 <1>   0.1500 
  6 C        3.7190     1.2390     0.3200 C.ar  1 <1>   0.1110 
  7 BR       4.5530     2.9360     0.5330 Br    1 <1>  -0.1110 
  8 C        4.4670     0.0620     0.1330 C.ar  1 <1>  -0.1440 
  9 C        5.9770     0.0900     0.0920 C.3   1 <1>   0.4240 
 10 H        6.3670     0.4730     1.0410 H     1 <1>   0.0000 
 11 H        6.3140     0.7240    -0.7340 H     1 <1>   0.0000 
 12 O        6.5340    -1.2040    -0.1080 O.3   1 <1>  -0.6800 
 13 H        7.5000    -1.0920    -0.1220 H     1 <1>   0.4000 
 14 C        3.7640    -1.1490    -0.0150 C.ar  1 <1>  -0.1500 
 15 H        4.3130    -2.0770    -0.1610 H     1 <1>   0.1500 
 16 C        2.3660    -1.1820     0.0220 C.ar  1 <1>   0.1110 
 17 BR       1.4940    -2.8520    -0.1860 Br    1 <1>  -0.1110 
@<TRIPOS>BOND
  1   1   2  1   
  2   2   3  1   
  3   3   4  ar  
  4   3  16  ar  
  5   4   5  1   
  6   4   6  ar  
  7   6   7  1   
  8   6   8  ar  
  9   8   9  1   
 10   8  14  ar  
 11   9  10  1   
 12   9  11  1   
 13   9  12  1   
 14  12  13  1   
 15  14  15  1   
 16  14  16  ar  
 17  16  17  1   
@<TRIPOS>SUBSTRUCTURE
  1 ****   8 GROUP 4 **** **** 0

# MOE 2022.02 (io_trps.svl 2020.11)

@<TRIPOS>MOLECULE
UNP076
33 34 1 0 0 
SMALL
USER_CHARGES


@<TRIPOS>ATOM
  1 H        1.7440     1.8280     0.2800 H     1 <1>   0.1500 
  2 C        0.8510     2.4340     0.1410 C.ar  1 <1>  -0.1500 
  3 C       -0.3900     1.9510     0.5560 C.ar  1 <1>  -0.1500 
  4 H       -0.4640     0.9680     1.0150 H     1 <1>   0.1500 
  5 C       -1.5380     2.7260     0.3780 C.ar  1 <1>  -0.1500 
  6 H       -2.4960     2.3270     0.7020 H     1 <1>   0.1500 
  7 C       -1.4470     3.9930    -0.2160 C.ar  1 <1>   0.0860 
  8 C       -2.6350     4.8610    -0.4300 C.2   1 <1>   0.6340 
  9 O       -2.5980     5.9240    -1.0290 O.2   1 <1>  -0.5700 
 10 O       -3.7320     4.3130     0.1450 O.3   1 <1>  -0.4300 
 11 C       -4.9650     5.0460    -0.0340 C.3   1 <1>   0.4240 
 12 H       -4.9940     5.4210    -1.0660 H     1 <1>   0.0000 
 13 C       -6.1170     4.0700     0.1520 C.ar  1 <1>  -0.1440 
 14 C       -7.2580     4.1710    -0.6580 C.ar  1 <1>  -0.1500 
 15 H       -7.3250     4.9500    -1.4150 H     1 <1>   0.1500 
 16 C       -8.3270     3.2860    -0.4990 C.ar  1 <1>  -0.1500 
 17 H       -9.2050     3.3770    -1.1320 H     1 <1>   0.1500 
 18 C       -8.2700     2.2930     0.4760 C.ar  1 <1>  -0.1500 
 19 H       -9.1030     1.6060     0.6010 H     1 <1>   0.1500 
 20 C       -7.1490     2.1850     1.2960 C.ar  1 <1>  -0.1500 
 21 H       -7.1070     1.4150     2.0610 H     1 <1>   0.1500 
 22 C       -6.0800     3.0700     1.1380 C.ar  1 <1>  -0.1500 
 23 H       -5.2160     2.9740     1.7900 H     1 <1>   0.1500 
 24 C       -5.0340     6.2260     0.9710 C.3   1 <1>   0.2700 
 25 H       -4.0580     6.7190     1.0400 H     1 <1>   0.0000 
 26 H       -5.2480     5.8500     1.9790 H     1 <1>   0.0000 
 27 N       -6.0300     7.2500     0.6250 N.3   1 <1>  -0.9900 
 28 H       -6.0010     7.9900     1.3260 H     1 <1>   0.3600 
 29 H       -5.7600     7.6890    -0.2560 H     1 <1>   0.3600 
 30 C       -0.1960     4.4690    -0.6330 C.ar  1 <1>  -0.1500 
 31 H       -0.1090     5.4480    -1.1000 H     1 <1>   0.1500 
 32 C        0.9490     3.6910    -0.4530 C.ar  1 <1>  -0.1500 
 33 H        1.9170     4.0660    -0.7780 H     1 <1>   0.1500 
@<TRIPOS>BOND
  1   1   2  1   
  2   2   3  ar  
  3   2  32  ar  
  4   3   4  1   
  5   3   5  ar  
  6   5   6  1   
  7   5   7  ar  
  8   7   8  1   
  9   7  30  ar  
 10   8   9  2   
 11   8  10  1   
 12  10  11  1   
 13  11  12  1   
 14  11  13  1   
 15  11  24  1   
 16  13  14  ar  
 17  13  22  ar  
 18  14  15  1   
 19  14  16  ar  
 20  16  17  1   
 21  16  18  ar  
 22  18  19  1   
 23  18  20  ar  
 24  20  21  1   
 25  20  22  ar  
 26  22  23  1   
 27  24  25  1   
 28  24  26  1   
 29  24  27  1   
 30  27  28  1   
 31  27  29  1   
 32  30  31  1   
 33  30  32  ar  
 34  32  33  1   
@<TRIPOS>SUBSTRUCTURE
  1 ****  10 GROUP 4 **** **** 0

# MOE 2022.02 (io_trps.svl 2020.11)

@<TRIPOS>MOLECULE
UNP077
19 18 1 0 0 
SMALL
USER_CHARGES


@<TRIPOS>ATOM
  1 H       -4.4760    -0.6120     1.0430 H     1 <1>   0.1500 
  2 C       -4.3520    -1.4350     0.3430 C.2   1 <1>  -0.2880 
  3 C       -3.1890    -1.5850    -0.3120 C.2   1 <1>  -0.2880 
  4 H       -3.0690    -2.4080    -1.0150 H     1 <1>   0.1500 
  5 C       -2.0080    -0.6710    -0.1580 C.3   1 <1>   0.2760 
  6 H       -1.7810    -0.2280    -1.1350 H     1 <1>   0.0000 
  7 H       -2.2400     0.1610     0.5170 H     1 <1>   0.0000 
  8 C       -0.8200    -1.4100     0.3860 C.2   1 <1>  -0.2880 
  9 H       -0.9310    -1.8250     1.3860 H     1 <1>   0.1500 
 10 C        0.3370    -1.5720    -0.2760 C.2   1 <1>  -0.2880 
 11 H        0.4510    -1.1570    -1.2760 H     1 <1>   0.1500 
 12 C        1.5160    -2.3060     0.2730 C.3   1 <1>   0.1380 
 13 H        1.3320    -2.6900     1.2810 H     1 <1>   0.0000 
 14 H        1.7630    -3.1530    -0.3750 H     1 <1>   0.0000 
 15 H        2.3840    -1.6400     0.3140 H     1 <1>   0.0000 
 16 C       -5.5240    -2.3470     0.1800 C.3   1 <1>   0.1380 
 17 H       -5.7840    -2.7960     1.1430 H     1 <1>   0.0000 
 18 H       -6.3890    -1.7810    -0.1810 H     1 <1>   0.0000 
 19 H       -5.3240    -3.1560    -0.5310 H     1 <1>   0.0000 
@<TRIPOS>BOND
  1   1   2  1   
  2   2   3  2   
  3   2  16  1   
  4   3   4  1   
  5   3   5  1   
  6   5   6  1   
  7   5   7  1   
  8   5   8  1   
  9   8   9  1   
 10   8  10  2   
 11  10  11  1   
 12  10  12  1   
 13  12  13  1   
 14  12  14  1   
 15  12  15  1   
 16  16  17  1   
 17  16  18  1   
 18  16  19  1   
@<TRIPOS>SUBSTRUCTURE
  1 ****   5 GROUP 4 **** **** 0

# MOE 2022.02 (io_trps.svl 2020.11)

@<TRIPOS>MOLECULE
UNP078
24 25 1 0 0 
SMALL
USER_CHARGES


@<TRIPOS>ATOM
  1 H        1.7960     4.2600    -1.3440 H     1 <1>   0.5000 
  2 O        2.1930     3.3670    -1.3050 O.3   1 <1>  -0.6500 
  3 C        1.7890     2.8760    -0.1190 C.2   1 <1>   0.7060 
  4 O        0.9770     3.4560     0.5790 O.2   1 <1>  -0.5700 
  5 C        2.4190     1.5580     0.1590 C.2   1 <1>   0.1230 
  6 C        1.6770     0.4750     0.4870 C.2   1 <1>  -0.2760 
  7 C        0.1670     0.4660     0.4870 C.3   1 <1>   0.1380 
  8 H       -0.2760     1.3260    -0.0200 H     1 <1>   0.0000 
  9 H       -0.2010    -0.4240    -0.0370 H     1 <1>   0.0000 
 10 H       -0.2090     0.4400     1.5150 H     1 <1>   0.0000 
 11 C        2.2720    -0.8570     0.9110 C.3   1 <1>   0.3680 
 12 H        2.2200    -1.5640     0.0760 H     1 <1>   0.0000 
 13 H        1.6880    -1.2760     1.7370 H     1 <1>   0.0000 
 14 S        3.9920    -0.7560     1.5010 S.3   1 <1>  -0.4470 
 15 C        4.5310     0.2570     0.1000 C.3   1 <1>   0.4420 
 16 H        4.4830    -0.2460    -0.8750 H     1 <1>   0.0000 
 17 N        3.7730     1.4870     0.1250 N.am  1 <1>  -0.3940 
 18 C        4.8170     2.3400     0.0990 C.2   1 <1>   0.5770 
 19 O        4.9050     3.5410     0.0110 O.2   1 <1>  -0.5700 
 20 C        5.7990     1.1330     0.3490 C.3   1 <1>   0.2630 
 21 H        6.2240     1.1340     1.3580 H     1 <1>   0.0000 
 22 N        6.7920     0.9070    -0.7240 N.3   1 <1>  -0.9300 
 23 H        7.4440     0.1500    -0.5190 H     1 <1>   0.3600 
 24 H        7.3710     1.7310    -0.8990 H     1 <1>   0.3600 
@<TRIPOS>BOND
  1   1   2  1   
  2   2   3  1   
  3   3   4  2   
  4   3   5  1   
  5   5   6  2   
  6   5  17  1   
  7   6   7  1   
  8   6  11  1   
  9   7   8  1   
 10   7   9  1   
 11   7  10  1   
 12  11  12  1   
 13  11  13  1   
 14  11  14  1   
 15  14  15  1   
 16  15  16  1   
 17  15  17  1   
 18  15  20  1   
 19  17  18  am  
 20  18  19  2   
 21  18  20  1   
 22  20  21  1   
 23  20  22  1   
 24  22  23  1   
 25  22  24  1   
@<TRIPOS>SUBSTRUCTURE
  1 ****  17 GROUP 4 **** **** 0

# MOE 2022.02 (io_trps.svl 2020.11)

@<TRIPOS>MOLECULE
UNP079
17 16 1 0 0 
SMALL
USER_CHARGES


@<TRIPOS>ATOM
  1 H        2.6170    -1.6390    -0.9660 H     1 <1>   0.4000 
  2 O        1.7340    -1.3930    -0.6360 O.3   1 <1>  -0.6800 
  3 C        1.8140    -0.0720    -0.0760 C.3   1 <1>   0.3410 
  4 C        2.7160    -0.1400     1.1590 C.2   1 <1>   0.4490 
  5 H        2.4390    -0.8980     1.9120 H     1 <1>   0.0600 
  6 O        3.6930     0.5820     1.3410 O.2   1 <1>  -0.5700 
  7 C        2.4380     0.8270    -1.1500 C.3   1 <1>   0.0000 
  8 H        3.4010     0.4230    -1.4850 H     1 <1>   0.0000 
  9 H        2.6210     1.8450    -0.7900 H     1 <1>   0.0000 
 10 H        1.7960     0.8770    -2.0360 H     1 <1>   0.0000 
 11 C        0.3880     0.4010     0.3070 C.3   1 <1>   0.2900 
 12 H       -0.2590     0.3130    -0.5740 H     1 <1>   0.0000 
 13 CL      -0.3740    -0.6860     1.5300 Cl    1 <1>  -0.2900 
 14 C        0.3100     1.8320     0.8320 C.3   1 <1>   0.0000 
 15 H        0.9280     1.9730     1.7250 H     1 <1>   0.0000 
 16 H       -0.7210     2.0960     1.0950 H     1 <1>   0.0000 
 17 H        0.6360     2.5520     0.0750 H     1 <1>   0.0000 
@<TRIPOS>BOND
  1   1   2  1   
  2   2   3  1   
  3   3   4  1   
  4   3   7  1   
  5   3  11  1   
  6   4   5  1   
  7   4   6  2   
  8   7   8  1   
  9   7   9  1   
 10   7  10  1   
 11  11  12  1   
 12  11  13  1   
 13  11  14  1   
 14  14  15  1   
 15  14  16  1   
 16  14  17  1   
@<TRIPOS>SUBSTRUCTURE
  1 ****   3 GROUP 4 **** **** 0

# MOE 2022.02 (io_trps.svl 2020.11)

@<TRIPOS>MOLECULE
UNP080
27 27 1 0 0 
SMALL
USER_CHARGES


@<TRIPOS>ATOM
  1 H       10.8540     2.3190    -1.2450 H     1 <1>   0.5000 
  2 O       10.2470     2.7820    -0.6290 O.3   1 <1>  -0.6500 
  3 C        9.1100     2.0490    -0.6640 C.2   1 <1>   0.6590 
  4 O        9.0410     1.0610    -1.3780 O.2   1 <1>  -0.5700 
  5 C        8.0230     2.5770     0.2820 C.3   1 <1>   0.3310 
  6 H        8.2140     2.1200     1.2610 H     1 <1>   0.0000 
  7 N        8.1380     4.0520     0.4240 N.3   1 <1>  -0.9900 
  8 H        9.1220     4.2620     0.6160 H     1 <1>   0.3600 
  9 H        7.9430     4.4950    -0.4740 H     1 <1>   0.3600 
 10 C        6.6470     2.1350    -0.2480 C.3   1 <1>   0.2300 
 11 H        6.4540     2.6010    -1.2220 H     1 <1>   0.0000 
 12 H        6.6370     1.0490    -0.3920 H     1 <1>   0.0000 
 13 S        5.2800     2.5630     0.8930 S.3   1 <1>  -0.4600 
 14 C        3.8410     2.0120    -0.1330 C.3   1 <1>   0.3680 
 15 H        4.0430     2.2940    -1.1720 H     1 <1>   0.0000 
 16 C        3.7400     0.5130    -0.0010 C.2   1 <1>  -0.2880 
 17 H        4.4170    -0.1030    -0.5850 H     1 <1>   0.1500 
 18 C        2.8430    -0.0720     0.8120 C.2   1 <1>  -0.1500 
 19 H        2.8030    -1.1550     0.8870 H     1 <1>   0.1500 
 20 C        1.9240     0.7050     1.6210 C.2   1 <1>   0.1100 
 21 BR       0.9310    -0.1740     2.9400 Br    1 <1>  -0.1100 
 22 C        1.7590     2.0180     1.3870 C.2   1 <1>  -0.2880 
 23 H        1.0400     2.6010     1.9550 H     1 <1>   0.1500 
 24 C        2.5240     2.7310     0.3080 C.3   1 <1>   0.4180 
 25 H        1.8580     2.7960    -0.5620 H     1 <1>   0.0000 
 26 O        2.7500     4.0740     0.7350 O.3   1 <1>  -0.6800 
 27 H        3.5940     4.0570     1.2300 H     1 <1>   0.4000 
@<TRIPOS>BOND
  1   1   2  1   
  2   2   3  1   
  3   3   4  2   
  4   3   5  1   
  5   5   6  1   
  6   5   7  1   
  7   5  10  1   
  8   7   8  1   
  9   7   9  1   
 10  10  11  1   
 11  10  12  1   
 12  10  13  1   
 13  13  14  1   
 14  14  15  1   
 15  14  16  1   
 16  14  24  1   
 17  16  17  1   
 18  16  18  2   
 19  18  19  1   
 20  18  20  1   
 21  20  21  1   
 22  20  22  2   
 23  22  23  1   
 24  22  24  1   
 25  24  25  1   
 26  24  26  1   
 27  26  27  1   
@<TRIPOS>SUBSTRUCTURE
  1 ****  13 GROUP 4 **** **** 0

# MOE 2022.02 (io_trps.svl 2020.11)

@<TRIPOS>MOLECULE
UNP081
26 26 1 0 0 
SMALL
USER_CHARGES


@<TRIPOS>ATOM
  1 H       -1.1540     5.0850    -0.5600 H     1 <1>   0.1500 
  2 C       -1.1490     4.0150    -0.3460 C.2   1 <1>  -0.1500 
  3 C       -2.4720     3.4520    -0.3260 C.2   1 <1>  -0.1500 
  4 H       -3.2170     4.0080    -0.8940 H     1 <1>   0.1500 
  5 C       -2.8940     2.4260     0.4190 C.2   1 <1>  -0.1360 
  6 H       -3.9510     2.1790     0.4490 H     1 <1>   0.1500 
  7 C       -2.0560     1.5500     1.2580 C.2   1 <1>   0.5410 
  8 O       -2.5490     0.9660     2.2190 O.2   1 <1>  -0.5700 
  9 C       -0.6800     1.2260     0.8190 C.2   1 <1>  -0.1360 
 10 H       -0.4270     0.2050     1.0930 H     1 <1>   0.1500 
 11 C        0.2190     1.9800     0.1550 C.2   1 <1>  -0.1380 
 12 C        1.5420     1.3310    -0.2880 C.3   1 <1>   0.1380 
 13 H        2.0970     2.0200    -0.9320 H     1 <1>   0.0000 
 14 C        2.4470     0.9980     0.9040 C.3   1 <1>   0.0000 
 15 H        3.4180     0.6290     0.5550 H     1 <1>   0.0000 
 16 H        2.0100     0.2230     1.5430 H     1 <1>   0.0000 
 17 H        2.6300     1.8810     1.5230 H     1 <1>   0.0000 
 18 C        1.3200     0.0810    -1.1540 C.3   1 <1>   0.0000 
 19 H        0.6530     0.3010    -1.9960 H     1 <1>   0.0000 
 20 H        0.8880    -0.7480    -0.5840 H     1 <1>   0.0000 
 21 H        2.2720    -0.2680    -1.5680 H     1 <1>   0.0000 
 22 C        0.0350     3.4110    -0.1330 C.2   1 <1>  -0.1380 
 23 C        1.2720     4.2860    -0.1380 C.3   1 <1>   0.1380 
 24 H        1.9180     4.0580     0.7160 H     1 <1>   0.0000 
 25 H        1.8400     4.1580    -1.0650 H     1 <1>   0.0000 
 26 H        1.0230     5.3510    -0.0600 H     1 <1>   0.0000 
@<TRIPOS>BOND
  1   1   2  1   
  2   2   3  1   
  3   2  22  2   
  4   3   4  1   
  5   3   5  2   
  6   5   6  1   
  7   5   7  1   
  8   7   8  2   
  9   7   9  1   
 10   9  10  1   
 11   9  11  2   
 12  11  12  1   
 13  11  22  1   
 14  12  13  1   
 15  12  14  1   
 16  12  18  1   
 17  14  15  1   
 18  14  16  1   
 19  14  17  1   
 20  18  19  1   
 21  18  20  1   
 22  18  21  1   
 23  22  23  1   
 24  23  24  1   
 25  23  25  1   
 26  23  26  1   
@<TRIPOS>SUBSTRUCTURE
  1 ****  11 GROUP 4 **** **** 0

# MOE 2022.02 (io_trps.svl 2020.11)

@<TRIPOS>MOLECULE
UNP082
37 36 1 0 0 
SMALL
USER_CHARGES


@<TRIPOS>ATOM
  1 H        0.8590    -1.6080    -1.9530 H     1 <1>   0.1500 
  2 C        0.8940    -0.7110    -1.3400 C.2   1 <1>  -0.3000 
  3 H       -0.0200    -0.4460    -0.8180 H     1 <1>   0.1500 
  4 C        2.0290    -0.0040    -1.2330 C.2   1 <1>  -0.2880 
  5 H        2.8790    -0.3770    -1.8050 H     1 <1>   0.1500 
  6 C        2.2660     1.2860    -0.4320 C.3   1 <1>   0.2430 
  7 C        3.1500     2.2190    -1.2740 C.3   1 <1>   0.0000 
  8 H        4.0260     1.6990    -1.6750 H     1 <1>   0.0000 
  9 H        3.5240     3.0670    -0.6920 H     1 <1>   0.0000 
 10 H        2.5940     2.6170    -2.1320 H     1 <1>   0.0000 
 11 C        0.9230     1.9850    -0.0500 C.3   1 <1>   0.0000 
 12 H        0.3630     1.3490     0.6480 H     1 <1>   0.0000 
 13 H        0.3040     2.0700    -0.9550 H     1 <1>   0.0000 
 14 C        1.0210     3.3870     0.5650 C.3   1 <1>   0.0000 
 15 H        1.5350     4.0720    -0.1170 H     1 <1>   0.0000 
 16 H        1.5860     3.3620     1.5000 H     1 <1>   0.0000 
 17 C       -0.3620     3.9530     0.8610 C.3   1 <1>   0.0000 
 18 H       -0.2760     4.9490     1.3050 H     1 <1>   0.0000 
 19 H       -0.9540     4.0390    -0.0560 H     1 <1>   0.0000 
 20 H       -0.9060     3.3140     1.5640 H     1 <1>   0.0000 
 21 S        3.1610     0.8020     1.1300 S.o2  1 <1>   1.0900 
 22 O        2.2980    -0.0990     1.8790 O.2   1 <1>  -0.6500 
 23 O        3.6430     2.0090     1.7820 O.2   1 <1>  -0.6500 
 24 C        4.6010    -0.1470     0.6540 C.3   1 <1>   0.1050 
 25 H        4.7540    -0.8960     1.4400 H     1 <1>   0.0000 
 26 H        4.3900    -0.6990    -0.2620 H     1 <1>   0.0000 
 27 C        5.8470     0.7120     0.5320 C.3   1 <1>   0.2460 
 28 H        6.1560     1.0440     1.5310 H     1 <1>   0.0000 
 29 H        5.6510     1.6000    -0.0770 H     1 <1>   0.0000 
 30 N        6.8950    -0.0930    -0.0930 N.2   1 <1>  -0.6960 
 31 C        8.0630     0.4250    -0.2090 C.2   1 <1>   0.5500 
 32 N        9.0440    -0.2930    -0.7780 N.pl3 1 <1>  -0.8500 
 33 H        8.8140    -1.2270    -1.0910 H     1 <1>   0.4000 
 34 H        9.9830     0.0420    -0.9060 H     1 <1>   0.4000 
 35 N        8.4860     1.6440     0.1700 N.pl3 1 <1>  -0.8500 
 36 H        9.4350     1.9450     0.0210 H     1 <1>   0.4000 
 37 H        7.8600     2.2950     0.6220 H     1 <1>   0.4000 
@<TRIPOS>BOND
  1   1   2  1   
  2   2   3  1   
  3   2   4  2   
  4   4   5  1   
  5   4   6  1   
  6   6   7  1   
  7   6  11  1   
  8   6  21  1   
  9   7   8  1   
 10   7   9  1   
 11   7  10  1   
 12  11  12  1   
 13  11  13  1   
 14  11  14  1   
 15  14  15  1   
 16  14  16  1   
 17  14  17  1   
 18  17  18  1   
 19  17  19  1   
 20  17  20  1   
 21  21  22  2   
 22  21  23  2   
 23  21  24  1   
 24  24  25  1   
 25  24  26  1   
 26  24  27  1   
 27  27  28  1   
 28  27  29  1   
 29  27  30  1   
 30  30  31  2   
 31  31  32  1   
 32  31  35  1   
 33  32  33  1   
 34  32  34  1   
 35  35  36  1   
 36  35  37  1   
@<TRIPOS>SUBSTRUCTURE
  1 ****  21 GROUP 4 **** **** 0

# MOE 2022.02 (io_trps.svl 2020.11)

@<TRIPOS>MOLECULE
UNP083
20 19 1 0 0 
SMALL
USER_CHARGES


@<TRIPOS>ATOM
  1 H        1.3640     1.8060    -0.1500 H     1 <1>   0.4000 
  2 O        2.1350     1.4250     0.3120 O.3   1 <1>  -0.6800 
  3 C        2.1600     0.0570    -0.1180 C.3   1 <1>   0.2800 
  4 H        2.2470     0.0650    -1.2120 H     1 <1>   0.0000 
  5 C        3.3920    -0.6230     0.4890 C.3   1 <1>   0.0000 
  6 H        3.3390    -0.5780     1.5840 H     1 <1>   0.0000 
  7 H        3.4280    -1.6790     0.2020 H     1 <1>   0.0000 
  8 C        4.6920     0.0400     0.0510 C.3   1 <1>   0.0000 
  9 H        5.5490    -0.4890     0.4800 H     1 <1>   0.0000 
 10 H        4.7420     1.0820     0.3830 H     1 <1>   0.0000 
 11 H        4.7930     0.0210    -1.0390 H     1 <1>   0.0000 
 12 C        0.8300    -0.6210     0.3030 C.3   1 <1>   0.2700 
 13 H        0.8160    -0.7540     1.3920 H     1 <1>   0.0000 
 14 N       -0.3120     0.2540    -0.0390 N.3   1 <1>  -0.9900 
 15 H       -0.3550     0.9990     0.6600 H     1 <1>   0.3600 
 16 H       -1.1810    -0.2670     0.0860 H     1 <1>   0.3600 
 17 C        0.6390    -1.9830    -0.3620 C.3   1 <1>   0.0000 
 18 H       -0.3210    -2.4280    -0.0770 H     1 <1>   0.0000 
 19 H        0.6600    -1.9010    -1.4550 H     1 <1>   0.0000 
 20 H        1.4200    -2.6860    -0.0600 H     1 <1>   0.0000 
@<TRIPOS>BOND
  1   1   2  1   
  2   2   3  1   
  3   3   4  1   
  4   3   5  1   
  5   3  12  1   
  6   5   6  1   
  7   5   7  1   
  8   5   8  1   
  9   8   9  1   
 10   8  10  1   
 11   8  11  1   
 12  12  13  1   
 13  12  14  1   
 14  12  17  1   
 15  14  15  1   
 16  14  16  1   
 17  17  18  1   
 18  17  19  1   
 19  17  20  1   
@<TRIPOS>SUBSTRUCTURE
  1 ****   3 GROUP 4 **** **** 0

# MOE 2022.02 (io_trps.svl 2020.11)

@<TRIPOS>MOLECULE
UNP084
15 14 1 0 0 
SMALL
USER_CHARGES


@<TRIPOS>ATOM
  1 H        9.1380     0.1550    -0.2430 H     1 <1>   0.1770 
  2 C        8.0740     0.1420    -0.2390 C.1   1 <1>  -0.1770 
  3 C        6.8740     0.1280    -0.2340 C.1   1 <1>   0.0000 
  4 C        5.4420     0.1110    -0.2280 C.1   1 <1>   0.0000 
  5 C        4.2420     0.0980    -0.2230 C.1   1 <1>  -0.2000 
  6 C        2.7730     0.0870    -0.2170 C.3   1 <1>   0.2000 
  7 H        2.4000     0.4320    -1.1890 H     1 <1>   0.0000 
  8 H        2.4060     0.7940     0.5360 H     1 <1>   0.0000 
  9 C        2.2330    -1.3110     0.0780 C.3   1 <1>   0.0000 
 10 H        2.5980    -2.0220    -0.6730 H     1 <1>   0.0000 
 11 H        2.6040    -1.6590     1.0500 H     1 <1>   0.0000 
 12 C        0.7130    -1.3310     0.0890 C.3   1 <1>   0.0000 
 13 H        0.3160    -0.6560     0.8540 H     1 <1>   0.0000 
 14 H        0.3100    -1.0250    -0.8820 H     1 <1>   0.0000 
 15 H        0.3490    -2.3410     0.3050 H     1 <1>   0.0000 
@<TRIPOS>BOND
  1   1   2  1   
  2   2   3  3   
  3   3   4  1   
  4   4   5  3   
  5   5   6  1   
  6   6   7  1   
  7   6   8  1   
  8   6   9  1   
  9   9  10  1   
 10   9  11  1   
 11   9  12  1   
 12  12  13  1   
 13  12  14  1   
 14  12  15  1   
@<TRIPOS>SUBSTRUCTURE
  1 ****   5 GROUP 4 **** **** 0

# MOE 2022.02 (io_trps.svl 2020.11)

@<TRIPOS>MOLECULE
UNP085
33 33 1 0 0 
SMALL
USER_CHARGES


@<TRIPOS>ATOM
  1 H        0.5950    -0.7020    -1.1500 H     1 <1>   0.0600 
  2 C        0.7060    -0.7620    -0.0550 C.2   1 <1>   0.4490 
  3 O       -0.0270    -1.5060     0.5910 O.2   1 <1>  -0.5700 
  4 C        1.8610     0.0280     0.5470 C.3   1 <1>   0.3610 
  5 H        2.6650    -0.7130     0.6480 H     1 <1>   0.0000 
  6 N        2.3550     1.0790    -0.3850 N.am  1 <1>  -0.4770 
  7 C        1.6420     2.1720    -0.8920 C.2   1 <1>   0.5690 
  8 O        2.1130     2.9220    -1.7560 O.2   1 <1>  -0.5700 
  9 C        0.2390     2.4530    -0.3900 C.3   1 <1>   0.3510 
 10 H       -0.2620     1.5920     0.0430 H     1 <1>   0.0000 
 11 H       -0.3710     2.8030    -1.2290 H     1 <1>   0.0000 
 12 CL       0.3130     3.7530     0.8180 Cl    1 <1>  -0.2900 
 13 C        3.7450     0.9720    -0.7440 C.ar  1 <1>   0.1170 
 14 C        4.2000    -0.0830    -1.5710 C.ar  1 <1>  -0.1440 
 15 C        3.2780    -1.0780    -2.2180 C.3   1 <1>   0.1440 
 16 H        2.3940    -0.5780    -2.6250 H     1 <1>   0.0000 
 17 H        2.9800    -1.8470    -1.5000 H     1 <1>   0.0000 
 18 H        3.7630    -1.5800    -3.0620 H     1 <1>   0.0000 
 19 C        5.5740    -0.2030    -1.8390 C.ar  1 <1>  -0.1500 
 20 H        5.9450    -1.0120    -2.4650 H     1 <1>   0.1500 
 21 C        6.4840     0.7220    -1.3370 C.ar  1 <1>  -0.1500 
 22 H        7.5410     0.6270    -1.5690 H     1 <1>   0.1500 
 23 C        6.0340     1.7810    -0.5560 C.ar  1 <1>  -0.1500 
 24 H        6.7570     2.5070    -0.1900 H     1 <1>   0.1500 
 25 C        4.6720     1.9150    -0.2370 C.ar  1 <1>  -0.1440 
 26 C        4.2720     3.0970     0.6060 C.3   1 <1>   0.1440 
 27 H        5.1090     3.4360     1.2270 H     1 <1>   0.0000 
 28 H        3.9630     3.9300    -0.0330 H     1 <1>   0.0000 
 29 H        3.4620     2.8480     1.2950 H     1 <1>   0.0000 
 30 C        1.5610     0.5190     1.9590 C.3   1 <1>   0.0000 
 31 H        0.6510     1.1190     2.0150 H     1 <1>   0.0000 
 32 H        1.4070    -0.3340     2.6310 H     1 <1>   0.0000 
 33 H        2.3900     1.1090     2.3600 H     1 <1>   0.0000 
@<TRIPOS>BOND
  1   1   2  1   
  2   2   3  2   
  3   2   4  1   
  4   4   5  1   
  5   4   6  1   
  6   4  30  1   
  7   6   7  am  
  8   6  13  1   
  9   7   8  2   
 10   7   9  1   
 11   9  10  1   
 12   9  11  1   
 13   9  12  1   
 14  13  14  ar  
 15  13  25  ar  
 16  14  15  1   
 17  14  19  ar  
 18  15  16  1   
 19  15  17  1   
 20  15  18  1   
 21  19  20  1   
 22  19  21  ar  
 23  21  22  1   
 24  21  23  ar  
 25  23  24  1   
 26  23  25  ar  
 27  25  26  1   
 28  26  27  1   
 29  26  28  1   
 30  26  29  1   
 31  30  31  1   
 32  30  32  1   
 33  30  33  1   
@<TRIPOS>SUBSTRUCTURE
  1 ****   6 GROUP 4 **** **** 0

# MOE 2022.02 (io_trps.svl 2020.11)

@<TRIPOS>MOLECULE
UNP086
34 34 1 0 0 
SMALL
USER_CHARGES


@<TRIPOS>ATOM
  1 H        7.4440    -1.1890    -1.0490 H     1 <1>   0.1500 
  2 C        7.6070    -0.1950    -0.6320 C.2   1 <1>  -0.2880 
  3 C        8.8460     0.1210    -0.2040 C.2   1 <1>  -0.2760 
  4 C        9.2530     1.4400     0.3900 C.3   1 <1>   0.1380 
  5 H       10.0960     1.8600    -0.1700 H     1 <1>   0.0000 
  6 H        9.5670     1.3030     1.4310 H     1 <1>   0.0000 
  7 H        8.4580     2.1880     0.3800 H     1 <1>   0.0000 
  8 C        9.9640    -0.8860    -0.2930 C.3   1 <1>   0.1380 
  9 H        9.6340    -1.8400    -0.7190 H     1 <1>   0.0000 
 10 H       10.3700    -1.0910     0.7030 H     1 <1>   0.0000 
 11 H       10.7710    -0.5020    -0.9260 H     1 <1>   0.0000 
 12 C        6.3630     0.6460    -0.6140 C.3   1 <1>   0.4180 
 13 H        6.5080     1.5850    -0.0740 H     1 <1>   0.0000 
 14 H        6.0790     0.8530    -1.6530 H     1 <1>   0.0000 
 15 O        5.3460    -0.1240     0.0260 O.3   1 <1>  -0.3630 
 16 C        4.1040     0.4410     0.1250 C.ar  1 <1>   0.0820 
 17 C        3.1650    -0.3370     0.8050 C.ar  1 <1>  -0.1500 
 18 H        3.4570    -1.3050     1.2050 H     1 <1>   0.1500 
 19 C        1.8550     0.1130     0.9780 C.ar  1 <1>  -0.1500 
 20 H        1.1430    -0.5130     1.5100 H     1 <1>   0.1500 
 21 C        1.4640     1.3570     0.4710 C.ar  1 <1>  -0.1440 
 22 C        0.0420     1.8370     0.6350 C.3   1 <1>   0.1440 
 23 H       -0.3380     1.5130     1.6130 H     1 <1>   0.0000 
 24 H        0.0300     2.9340     0.6560 H     1 <1>   0.0000 
 25 C       -0.8610     1.3170    -0.4870 C.3   1 <1>   0.2700 
 26 H       -0.8710     0.2220    -0.4890 H     1 <1>   0.0000 
 27 H       -0.4810     1.6390    -1.4640 H     1 <1>   0.0000 
 28 N       -2.2330     1.7980    -0.3270 N.3   1 <1>  -0.9900 
 29 H       -2.2490     2.8150    -0.3880 H     1 <1>   0.3600 
 30 H       -2.7980     1.4590    -1.1040 H     1 <1>   0.3600 
 31 C        2.4060     2.1340    -0.2150 C.ar  1 <1>  -0.1500 
 32 H        2.1240     3.1020    -0.6230 H     1 <1>   0.1500 
 33 C        3.7190     1.6800    -0.3850 C.ar  1 <1>  -0.1500 
 34 H        4.4110     2.3190    -0.9240 H     1 <1>   0.1500 
@<TRIPOS>BOND
  1   1   2  1   
  2   2   3  2   
  3   2  12  1   
  4   3   4  1   
  5   3   8  1   
  6   4   5  1   
  7   4   6  1   
  8   4   7  1   
  9   8   9  1   
 10   8  10  1   
 11   8  11  1   
 12  12  13  1   
 13  12  14  1   
 14  12  15  1   
 15  15  16  1   
 16  16  17  ar  
 17  16  33  ar  
 18  17  18  1   
 19  17  19  ar  
 20  19  20  1   
 21  19  21  ar  
 22  21  22  1   
 23  21  31  ar  
 24  22  23  1   
 25  22  24  1   
 26  22  25  1   
 27  25  26  1   
 28  25  27  1   
 29  25  28  1   
 30  28  29  1   
 31  28  30  1   
 32  31  32  1   
 33  31  33  ar  
 34  33  34  1   
@<TRIPOS>SUBSTRUCTURE
  1 ****  16 GROUP 4 **** **** 0

# MOE 2022.02 (io_trps.svl 2020.11)

@<TRIPOS>MOLECULE
UNP087
22 22 1 0 0 
SMALL
USER_CHARGES


@<TRIPOS>ATOM
  1 H       -0.8670     1.9660    -0.1100 H     1 <1>   0.1500 
  2 C       -1.3620     1.0250     0.1180 C.2   1 <1>  -0.2880 
  3 C       -0.6230    -0.1000     0.2540 C.2   1 <1>  -0.2760 
  4 C        0.8930    -0.1380     0.1060 C.3   1 <1>   0.1380 
  5 H        1.3130    -0.5100     1.0500 H     1 <1>   0.0000 
  6 H        1.1380    -0.8800    -0.6650 H     1 <1>   0.0000 
  7 C        1.6040     1.1730    -0.2510 C.3   1 <1>   0.0000 
  8 H        1.2250     1.5620    -1.2030 H     1 <1>   0.0000 
  9 H        1.4120     1.9290     0.5190 H     1 <1>   0.0000 
 10 C        3.1080     0.9710    -0.3700 C.3   1 <1>   0.0000 
 11 H        3.5320     0.6120     0.5730 H     1 <1>   0.0000 
 12 H        3.3460     0.2440    -1.1540 H     1 <1>   0.0000 
 13 H        3.5980     1.9170    -0.6250 H     1 <1>   0.0000 
 14 C       -1.2310    -1.4590     0.5570 C.3   1 <1>   0.3680 
 15 H       -0.4560    -2.1460     0.9170 H     1 <1>   0.0000 
 16 H       -1.9710    -1.4000     1.3630 H     1 <1>   0.0000 
 17 S       -1.9530    -2.1850    -0.9500 S.3   1 <1>  -0.2300 
 18 S       -3.8650    -1.4410    -0.8720 S.3   1 <1>   0.0000 
 19 S       -3.6550     0.5570    -1.2960 S.3   1 <1>  -0.2300 
 20 C       -2.8570     1.1560     0.2240 C.3   1 <1>   0.3680 
 21 H       -3.2530     0.6570     1.1140 H     1 <1>   0.0000 
 22 H       -3.1050     2.2180     0.3330 H     1 <1>   0.0000 
@<TRIPOS>BOND
  1   1   2  1   
  2   2   3  2   
  3   2  20  1   
  4   3   4  1   
  5   3  14  1   
  6   4   5  1   
  7   4   6  1   
  8   4   7  1   
  9   7   8  1   
 10   7   9  1   
 11   7  10  1   
 12  10  11  1   
 13  10  12  1   
 14  10  13  1   
 15  14  15  1   
 16  14  16  1   
 17  14  17  1   
 18  17  18  1   
 19  18  19  1   
 20  19  20  1   
 21  20  21  1   
 22  20  22  1   
@<TRIPOS>SUBSTRUCTURE
  1 ****   3 GROUP 4 **** **** 0

# MOE 2022.02 (io_trps.svl 2020.11)

@<TRIPOS>MOLECULE
UNP088
33 34 1 0 0 
SMALL
USER_CHARGES


@<TRIPOS>ATOM
  1 H        3.6010    -4.6330    -0.8130 H     1 <1>   0.1500 
  2 C        2.6320    -4.7790    -0.3440 C.ar  1 <1>  -0.1500 
  3 C        2.4480    -5.7970     0.5830 C.ar  1 <1>  -0.1500 
  4 H        3.2720    -6.4550     0.8430 H     1 <1>   0.1500 
  5 C        1.1970    -5.9740     1.1840 C.ar  1 <1>  -0.1500 
  6 H        1.0800    -6.7810     1.9040 H     1 <1>   0.1500 
  7 C        0.1060    -5.1460     0.8780 C.ar  1 <1>   0.1000 
  8 N       -1.1050    -5.4030     1.4810 N.pl3 1 <1>  -0.8690 
  9 H       -1.1110    -6.0720     2.2390 H     1 <1>   0.4000 
 10 C       -2.4110    -4.8340     1.1750 C.3   1 <1>   0.6490 
 11 H       -3.0970    -5.2050     1.9480 H     1 <1>   0.0000 
 12 O       -2.3930    -3.4160     1.3180 O.3   1 <1>  -0.5600 
 13 C       -3.2900    -2.7090     0.4580 C.3   1 <1>   0.2800 
 14 H       -2.7930    -2.5650    -0.5090 H     1 <1>   0.0000 
 15 C       -3.5270    -1.3370     1.0760 C.3   1 <1>   0.0000 
 16 H       -2.5770    -0.8100     1.2110 H     1 <1>   0.0000 
 17 H       -4.1800    -0.7240     0.4470 H     1 <1>   0.0000 
 18 H       -3.9800    -1.4280     2.0690 H     1 <1>   0.0000 
 19 C       -4.6060    -3.4620     0.2560 C.3   1 <1>   0.0000 
 20 H       -5.0770    -3.6300     1.2330 H     1 <1>   0.0000 
 21 H       -5.3110    -2.8740    -0.3430 H     1 <1>   0.0000 
 22 C       -4.3780    -4.8240    -0.4060 C.3   1 <1>   0.0000 
 23 H       -5.1100    -5.5330     0.0020 H     1 <1>   0.0000 
 24 H       -4.5870    -4.7550    -1.4810 H     1 <1>   0.0000 
 25 C       -2.9440    -5.3280    -0.2050 C.3   1 <1>   0.2700 
 26 H       -2.3230    -4.8840    -0.9930 H     1 <1>   0.0000 
 27 N       -2.8910    -6.7910    -0.3900 N.3   1 <1>  -0.9900 
 28 H       -3.0170    -7.0070    -1.3780 H     1 <1>   0.3600 
 29 H       -1.9340    -7.0770    -0.1620 H     1 <1>   0.3600 
 30 C        0.3190    -4.1310    -0.0580 C.ar  1 <1>  -0.1500 
 31 H       -0.4790    -3.4460    -0.3220 H     1 <1>   0.1500 
 32 C        1.5670    -3.9440    -0.6640 C.ar  1 <1>  -0.1500 
 33 H        1.7020    -3.1390    -1.3820 H     1 <1>   0.1500 
@<TRIPOS>BOND
  1   1   2  1   
  2   2   3  ar  
  3   2  32  ar  
  4   3   4  1   
  5   3   5  ar  
  6   5   6  1   
  7   5   7  ar  
  8   7   8  1   
  9   7  30  ar  
 10   8   9  1   
 11   8  10  1   
 12  10  11  1   
 13  10  12  1   
 14  10  25  1   
 15  12  13  1   
 16  13  14  1   
 17  13  15  1   
 18  13  19  1   
 19  15  16  1   
 20  15  17  1   
 21  15  18  1   
 22  19  20  1   
 23  19  21  1   
 24  19  22  1   
 25  22  23  1   
 26  22  24  1   
 27  22  25  1   
 28  25  26  1   
 29  25  27  1   
 30  27  28  1   
 31  27  29  1   
 32  30  31  1   
 33  30  32  ar  
 34  32  33  1   
@<TRIPOS>SUBSTRUCTURE
  1 ****   8 GROUP 4 **** **** 0

# MOE 2022.02 (io_trps.svl 2020.11)

@<TRIPOS>MOLECULE
UNP089
10 10 1 0 0 
SMALL
USER_CHARGES


@<TRIPOS>ATOM
  1 H       -1.3920    -0.6520     0.6520 H     1 <1>   0.3700 
  2 N       -1.2230     0.2990     0.3670 N.am  1 <1>  -0.6550 
  3 C       -0.0440     0.9620     0.3490 C.2   1 <1>   0.5770 
  4 O        1.0660     0.6050     0.6560 O.2   1 <1>  -0.5700 
  5 C       -0.7280     2.2310    -0.1870 C.3   1 <1>   0.0530 
  6 H       -0.6860     3.0810     0.4980 H     1 <1>   0.0000 
  7 H       -0.3990     2.5240    -1.1870 H     1 <1>   0.0000 
  8 C       -2.0240     1.3980    -0.1330 C.3   1 <1>   0.2250 
  9 H       -2.4870     1.1850    -1.1000 H     1 <1>   0.0000 
 10 H       -2.7740     1.7420     0.5850 H     1 <1>   0.0000 
@<TRIPOS>BOND
  1   1   2  1   
  2   2   3  am  
  3   2   8  1   
  4   3   4  2   
  5   3   5  1   
  6   5   6  1   
  7   5   7  1   
  8   5   8  1   
  9   8   9  1   
 10   8  10  1   
@<TRIPOS>SUBSTRUCTURE
  1 ****   3 GROUP 4 **** **** 0

# MOE 2022.02 (io_trps.svl 2020.11)

@<TRIPOS>MOLECULE
UNP090
22 23 1 0 0 
SMALL
USER_CHARGES


@<TRIPOS>ATOM
  1 H        6.6300     2.7820     0.0010 H     1 <1>   0.0600 
  2 C        6.6050     1.6820     0.0000 C.2   1 <1>   0.4240 
  3 O        7.6410     1.0270     0.0000 O.2   1 <1>  -0.5700 
  4 C        5.2910     1.0280    -0.0010 C.2   1 <1>   0.0860 
  5 C        5.1420    -0.3150    -0.0020 C.2   1 <1>  -0.1500 
  6 H        5.9550    -1.0260    -0.0020 H     1 <1>   0.1500 
  7 C        3.8290    -0.6320    -0.0020 C.2   1 <1>  -0.1500 
  8 H        3.4680    -1.6480    -0.0040 H     1 <1>   0.1500 
  9 C        3.0570     0.5360    -0.0020 C.2   1 <1>   0.0000 
 10 C        1.6240     0.6640    -0.0020 C.2   1 <1>   0.0860 
 11 C        0.8200    -0.5990    -0.0030 C.2   1 <1>   0.4240 
 12 H        1.3640    -1.5530    -0.0050 H     1 <1>   0.0600 
 13 O       -0.4070    -0.6090    -0.0020 O.2   1 <1>  -0.5700 
 14 C        0.8280     1.8600    -0.0010 C.2   1 <1>  -0.1500 
 15 H       -0.2610     1.7210    -0.0010 H     1 <1>   0.1500 
 16 C        1.2310     3.2210     0.0010 C.2   1 <1>  -0.1500 
 17 H        0.4200     3.9580     0.0020 H     1 <1>   0.1500 
 18 C        2.5440     3.7440     0.0020 C.2   1 <1>  -0.1500 
 19 H        2.6180     4.8380     0.0030 H     1 <1>   0.1500 
 20 C        3.7810     3.0410     0.0010 C.2   1 <1>  -0.1500 
 21 H        4.6510     3.7060     0.0020 H     1 <1>   0.1500 
 22 C        4.0420     1.6410     0.0000 C.2   1 <1>   0.0000 
@<TRIPOS>BOND
  1   1   2  1   
  2   2   3  2   
  3   2   4  1   
  4   4   5  1   
  5   4  22  2   
  6   5   6  1   
  7   5   7  2   
  8   7   8  1   
  9   7   9  1   
 10   9  10  2   
 11   9  22  1   
 12  10  11  1   
 13  10  14  1   
 14  11  12  1   
 15  11  13  2   
 16  14  15  1   
 17  14  16  2   
 18  16  17  1   
 19  16  18  1   
 20  18  19  1   
 21  18  20  2   
 22  20  21  1   
 23  20  22  1   
@<TRIPOS>SUBSTRUCTURE
  1 ****   9 GROUP 4 **** **** 0

# MOE 2022.02 (io_trps.svl 2020.11)

@<TRIPOS>MOLECULE
UNP091
14 13 1 0 0 
SMALL
USER_CHARGES


@<TRIPOS>ATOM
  1 H        2.8160    -1.7480    -0.9450 H     1 <1>   0.0600 
  2 C        2.8540    -0.7090    -0.5710 C.2   1 <1>   0.4490 
  3 O        3.9260    -0.1090    -0.5460 O.2   1 <1>  -0.5700 
  4 C        1.5470    -0.1650    -0.0180 C.3   1 <1>   0.2910 
  5 H        1.3350    -0.7250     0.8990 H     1 <1>   0.0000 
  6 S        0.2290    -0.5270    -1.2430 S.3   1 <1>  -0.4600 
  7 C       -1.2330    -0.1350    -0.2480 C.3   1 <1>   0.2300 
  8 H       -1.3020     0.9400    -0.0670 H     1 <1>   0.0000 
  9 H       -2.1280    -0.4460    -0.7940 H     1 <1>   0.0000 
 10 H       -1.2060    -0.6730     0.7030 H     1 <1>   0.0000 
 11 C        1.6460     1.3250     0.2790 C.3   1 <1>   0.0000 
 12 H        2.4620     1.5220     0.9840 H     1 <1>   0.0000 
 13 H        1.8570     1.9060    -0.6260 H     1 <1>   0.0000 
 14 H        0.7300     1.7130     0.7350 H     1 <1>   0.0000 
@<TRIPOS>BOND
  1   1   2  1   
  2   2   3  2   
  3   2   4  1   
  4   4   5  1   
  5   4   6  1   
  6   4  11  1   
  7   6   7  1   
  8   7   8  1   
  9   7   9  1   
 10   7  10  1   
 11  11  12  1   
 12  11  13  1   
 13  11  14  1   
@<TRIPOS>SUBSTRUCTURE
  1 ****   4 GROUP 4 **** **** 0

# MOE 2022.02 (io_trps.svl 2020.11)

@<TRIPOS>MOLECULE
UNP092
10 9 1 0 0 
SMALL
USER_CHARGES


@<TRIPOS>ATOM
  1 H        2.7060    -1.8200     0.0800 H     1 <1>   0.0000 
  2 C        2.7250    -0.7430     0.2580 C.3   1 <1>   0.2910 
  3 H        3.6100    -0.3060    -0.2110 H     1 <1>   0.0000 
  4 BR       2.8510    -0.4160     2.1610 Br    1 <1>  -0.2300 
  5 C        1.4730    -0.0860    -0.2610 C.2   1 <1>   0.4480 
  6 O        1.5400     0.9190    -0.9740 O.2   1 <1>  -0.5700 
  7 C        0.1480    -0.7480     0.0650 C.3   1 <1>   0.2510 
  8 H        0.3210    -1.6600     0.6450 H     1 <1>   0.0000 
  9 H       -0.3120    -1.0570    -0.8800 H     1 <1>   0.0000 
 10 I       -1.0750     0.5990     1.1340 I     1 <1>  -0.1900 
@<TRIPOS>BOND
  1   1   2  1   
  2   2   3  1   
  3   2   4  1   
  4   2   5  1   
  5   5   6  2   
  6   5   7  1   
  7   7   8  1   
  8   7   9  1   
  9   7  10  1   
@<TRIPOS>SUBSTRUCTURE
  1 ****   5 GROUP 4 **** **** 0

# MOE 2022.02 (io_trps.svl 2020.11)

@<TRIPOS>MOLECULE
UNP093
13 13 1 0 0 
SMALL
USER_CHARGES


@<TRIPOS>ATOM
  1 H        4.2160    -1.3140     0.7100 H     1 <1>   0.0600 
  2 C        3.6250    -0.3870     0.6000 C.2   1 <1>   0.4490 
  3 O        3.9930     0.6490     1.1420 O.2   1 <1>  -0.5700 
  4 C        2.4080    -0.4950    -0.2850 C.3   1 <1>   0.0610 
  5 H        2.7760    -0.7410    -1.2910 H     1 <1>   0.0000 
  6 C        1.5150    -1.6130     0.2420 C.3   1 <1>   0.2300 
  7 H        1.3040    -1.4940     1.3110 H     1 <1>   0.0000 
  8 H        1.9770    -2.5950     0.1030 H     1 <1>   0.0000 
  9 S       -0.0380    -1.5280    -0.6830 S.3   1 <1>  -0.2300 
 10 S        0.0630     0.4640    -1.1600 S.3   1 <1>  -0.2300 
 11 C        1.6260     0.8150    -0.3120 C.3   1 <1>   0.2300 
 12 H        2.1730     1.5990    -0.8460 H     1 <1>   0.0000 
 13 H        1.4080     1.1840     0.6960 H     1 <1>   0.0000 
@<TRIPOS>BOND
  1   1   2  1   
  2   2   3  2   
  3   2   4  1   
  4   4   5  1   
  5   4   6  1   
  6   4  11  1   
  7   6   7  1   
  8   6   8  1   
  9   6   9  1   
 10   9  10  1   
 11  10  11  1   
 12  11  12  1   
 13  11  13  1   
@<TRIPOS>SUBSTRUCTURE
  1 ****   4 GROUP 4 **** **** 0

# MOE 2022.02 (io_trps.svl 2020.11)

@<TRIPOS>MOLECULE
UNP094
23 23 1 0 0 
SMALL
USER_CHARGES


@<TRIPOS>ATOM
  1 H       -0.5720    -0.9090     0.4060 H     1 <1>   0.3600 
  2 N       -0.5670     0.1030     0.5370 N.3   1 <1>  -0.9000 
  3 C       -1.7800     0.6810    -0.0520 C.3   1 <1>   0.2700 
  4 H       -1.8030     0.4570    -1.1260 H     1 <1>   0.0000 
  5 C       -3.0050     0.0340     0.5910 C.3   1 <1>   0.0000 
  6 H       -3.0330     0.2110     1.6730 H     1 <1>   0.0000 
  7 H       -3.9270     0.4390     0.1600 H     1 <1>   0.0000 
  8 H       -3.0100    -1.0490     0.4260 H     1 <1>   0.0000 
  9 C       -1.8100     2.2020     0.1480 C.3   1 <1>   0.0000 
 10 H       -2.6930     2.6290    -0.3420 H     1 <1>   0.0000 
 11 H       -1.8940     2.4400     1.2170 H     1 <1>   0.0000 
 12 C       -0.5530     2.8590    -0.4130 C.3   1 <1>   0.0000 
 13 H       -0.5540     2.7770    -1.5070 H     1 <1>   0.0000 
 14 H       -0.5480     3.9280    -0.1710 H     1 <1>   0.0000 
 15 C        0.6970     2.1900     0.1490 C.3   1 <1>   0.0000 
 16 H        0.7830     2.4260     1.2180 H     1 <1>   0.0000 
 17 H        1.5840     2.6090    -0.3400 H     1 <1>   0.0000 
 18 C        0.6520     0.6700    -0.0530 C.3   1 <1>   0.2700 
 19 H        0.6710     0.4460    -1.1280 H     1 <1>   0.0000 
 20 C        1.8710     0.0090     0.5870 C.3   1 <1>   0.0000 
 21 H        1.8640    -1.0740     0.4220 H     1 <1>   0.0000 
 22 H        2.7960     0.4040     0.1520 H     1 <1>   0.0000 
 23 H        1.9050     0.1860     1.6680 H     1 <1>   0.0000 
@<TRIPOS>BOND
  1   1   2  1   
  2   2   3  1   
  3   2  18  1   
  4   3   4  1   
  5   3   5  1   
  6   3   9  1   
  7   5   6  1   
  8   5   7  1   
  9   5   8  1   
 10   9  10  1   
 11   9  11  1   
 12   9  12  1   
 13  12  13  1   
 14  12  14  1   
 15  12  15  1   
 16  15  16  1   
 17  15  17  1   
 18  15  18  1   
 19  18  19  1   
 20  18  20  1   
 21  20  21  1   
 22  20  22  1   
 23  20  23  1   
@<TRIPOS>SUBSTRUCTURE
  1 ****   2 GROUP 4 **** **** 0

# MOE 2022.02 (io_trps.svl 2020.11)

@<TRIPOS>MOLECULE
UNP095
20 19 1 0 0 
SMALL
USER_CHARGES


@<TRIPOS>ATOM
  1 H       -1.4900    -4.7290     0.3560 H     1 <1>   0.5000 
  2 O       -1.2290    -3.8270     0.0700 O.3   1 <1>  -0.6500 
  3 C       -0.2450    -3.4770     0.9270 C.2   1 <1>   0.6590 
  4 O        0.0940    -4.2420     1.8170 O.2   1 <1>  -0.5700 
  5 C        0.3330    -2.1070     0.6490 C.3   1 <1>   0.4010 
  6 H       -0.3970    -1.5530     0.0460 H     1 <1>   0.0000 
  7 F        0.4900    -1.4030     1.8110 F     1 <1>  -0.3400 
  8 C        1.6840    -2.2110    -0.0720 C.3   1 <1>   0.3410 
  9 O        1.6140    -3.2010    -1.1190 O.3   1 <1>  -0.6800 
 10 H        1.8480    -2.7380    -1.9540 H     1 <1>   0.4000 
 11 C        1.9610    -0.8250    -0.6710 C.2   1 <1>   0.6590 
 12 O        1.9340     0.2540    -0.1090 O.2   1 <1>  -0.5700 
 13 O        2.2650    -0.9070    -1.9900 O.3   1 <1>  -0.6500 
 14 H        2.5040     0.0160    -2.2330 H     1 <1>   0.5000 
 15 C        2.8150    -2.5860     0.8850 C.3   1 <1>   0.0610 
 16 H        2.9650    -1.8260     1.6590 H     1 <1>   0.0000 
 17 H        2.6270    -3.5430     1.3830 H     1 <1>   0.0000 
 18 C        4.1040    -2.7500     0.1270 C.2   1 <1>   0.4490 
 19 H        4.2570    -3.7310    -0.3560 H     1 <1>   0.0600 
 20 O        4.9130    -1.8400    -0.0200 O.2   1 <1>  -0.5700 
@<TRIPOS>BOND
  1   1   2  1   
  2   2   3  1   
  3   3   4  2   
  4   3   5  1   
  5   5   6  1   
  6   5   7  1   
  7   5   8  1   
  8   8   9  1   
  9   8  11  1   
 10   8  15  1   
 11   9  10  1   
 12  11  12  2   
 13  11  13  1   
 14  13  14  1   
 15  15  16  1   
 16  15  17  1   
 17  15  18  1   
 18  18  19  1   
 19  18  20  2   
@<TRIPOS>SUBSTRUCTURE
  1 ****   8 GROUP 4 **** **** 0

# MOE 2022.02 (io_trps.svl 2020.11)

@<TRIPOS>MOLECULE
UNP096
16 15 1 0 0 
SMALL
USER_CHARGES


@<TRIPOS>ATOM
  1 H        5.5580    -2.2770    -0.7130 H     1 <1>   0.4000 
  2 O        4.7500    -1.7480    -0.8420 O.3   1 <1>  -0.6800 
  3 C        3.7090    -2.3770    -0.1020 C.3   1 <1>   0.2800 
  4 H        3.6050    -3.4020    -0.4760 H     1 <1>   0.0000 
  5 H        4.0120    -2.4270     0.9500 H     1 <1>   0.0000 
  6 C        2.3960    -1.6020    -0.2680 C.3   1 <1>   0.2000 
  7 H        2.1950    -1.4910    -1.3410 H     1 <1>   0.0000 
  8 C        1.3080    -2.3740     0.3560 C.1   1 <1>   0.3570 
  9 N        0.4600    -2.9930     0.8500 N.1   1 <1>  -0.5570 
 10 C        2.5030    -0.1930     0.3450 C.3   1 <1>   0.0000 
 11 H        3.3900     0.3170    -0.0510 H     1 <1>   0.0000 
 12 H        2.6350    -0.2600     1.4330 H     1 <1>   0.0000 
 13 C        1.2900     0.6810     0.0460 C.3   1 <1>   0.0000 
 14 H        1.4410     1.6850     0.4560 H     1 <1>   0.0000 
 15 H        1.1330     0.7760    -1.0330 H     1 <1>   0.0000 
 16 H        0.3790     0.2720     0.4940 H     1 <1>   0.0000 
@<TRIPOS>BOND
  1   1   2  1   
  2   2   3  1   
  3   3   4  1   
  4   3   5  1   
  5   3   6  1   
  6   6   7  1   
  7   6   8  1   
  8   6  10  1   
  9   8   9  3   
 10  10  11  1   
 11  10  12  1   
 12  10  13  1   
 13  13  14  1   
 14  13  15  1   
 15  13  16  1   
@<TRIPOS>SUBSTRUCTURE
  1 ****   6 GROUP 4 **** **** 0

# MOE 2022.02 (io_trps.svl 2020.11)

@<TRIPOS>MOLECULE
UNP097
27 27 1 0 0 
SMALL
USER_CHARGES


@<TRIPOS>ATOM
  1 H        7.4040    -1.1290     0.6270 H     1 <1>   0.5000 
  2 O        6.6920    -1.3750     0.0040 O.3   1 <1>  -0.6500 
  3 C        5.5630    -1.2100     0.7280 C.2   1 <1>   0.6590 
  4 O        5.6320    -0.7470     1.8570 O.2   1 <1>  -0.5700 
  5 C        4.3050    -1.6270    -0.0260 C.3   1 <1>   0.3070 
  6 H        4.3400    -1.1180    -0.9960 H     1 <1>   0.0000 
  7 N        4.3520    -3.0880    -0.2260 N.2   1 <1>  -0.6960 
  8 C        3.2180    -3.6820    -0.3090 C.2   1 <1>   0.4400 
  9 H        3.2180    -4.7750    -0.4660 H     1 <1>   0.0600 
 10 N        1.9540    -3.1530    -0.2230 N.pl3 1 <1>  -0.7880 
 11 C        0.7820    -3.9990    -0.3940 C.3   1 <1>   0.3690 
 12 H        0.3960    -4.3100     0.5820 H     1 <1>   0.0000 
 13 H       -0.0120    -3.4790    -0.9400 H     1 <1>   0.0000 
 14 H        1.0210    -4.9010    -0.9670 H     1 <1>   0.0000 
 15 C        1.7850    -1.7090     0.0390 C.3   1 <1>   0.3690 
 16 C        0.6010    -1.4390     0.9890 C.3   1 <1>   0.0000 
 17 H        0.5570    -0.3830     1.2780 H     1 <1>   0.0000 
 18 H        0.6870    -2.0320     1.9070 H     1 <1>   0.0000 
 19 H       -0.3600    -1.6880     0.5270 H     1 <1>   0.0000 
 20 C        1.5510    -0.9730    -1.3100 C.3   1 <1>   0.2800 
 21 H        2.3250    -1.2270    -2.0410 H     1 <1>   0.0000 
 22 H        0.5890    -1.2680    -1.7460 H     1 <1>   0.0000 
 23 O        1.5410     0.4420    -1.1470 O.3   1 <1>  -0.6800 
 24 H        1.4060     0.8290    -2.0300 H     1 <1>   0.4000 
 25 C        3.0600    -1.2110     0.7500 C.3   1 <1>   0.0000 
 26 H        3.0420    -0.1230     0.8860 H     1 <1>   0.0000 
 27 H        3.1050    -1.6430     1.7610 H     1 <1>   0.0000 
@<TRIPOS>BOND
  1   1   2  1   
  2   2   3  1   
  3   3   4  2   
  4   3   5  1   
  5   5   6  1   
  6   5   7  1   
  7   5  25  1   
  8   7   8  2   
  9   8   9  1   
 10   8  10  1   
 11  10  11  1   
 12  10  15  1   
 13  11  12  1   
 14  11  13  1   
 15  11  14  1   
 16  15  16  1   
 17  15  20  1   
 18  15  25  1   
 19  16  17  1   
 20  16  18  1   
 21  16  19  1   
 22  20  21  1   
 23  20  22  1   
 24  20  23  1   
 25  23  24  1   
 26  25  26  1   
 27  25  27  1   
@<TRIPOS>SUBSTRUCTURE
  1 ****  25 GROUP 4 **** **** 0

# MOE 2022.02 (io_trps.svl 2020.11)

@<TRIPOS>MOLECULE
UNP098
19 19 1 0 0 
SMALL
USER_CHARGES


@<TRIPOS>ATOM
  1 H       -3.1640     1.8430    -0.0560 H     1 <1>   0.1500 
  2 C       -2.0890     1.9620    -0.0600 C.2   1 <1>  -0.0100 
  3 O       -1.3790     0.8140    -0.1800 O.3   1 <1>  -0.2800 
  4 C       -0.0690     1.1600    -0.1650 C.2   1 <1>  -0.0100 
  5 H        0.6340     0.3430    -0.2520 H     1 <1>   0.1500 
  6 C        0.0820     2.5260    -0.0350 C.2   1 <1>  -0.1810 
  7 C        1.3610     3.2920     0.0150 C.3   1 <1>   0.4610 
  8 H        1.3240     4.0020     0.8500 H     1 <1>   0.0000 
  9 H        1.4740     3.8550    -0.9200 H     1 <1>   0.0000 
 10 O        2.4910     2.4340     0.1850 O.3   1 <1>  -0.5600 
 11 C        3.7030     3.1720     0.2420 C.3   1 <1>   0.2800 
 12 H        4.5300     2.4680     0.3700 H     1 <1>   0.0000 
 13 H        3.8580     3.7280    -0.6870 H     1 <1>   0.0000 
 14 H        3.6950     3.8580     1.0950 H     1 <1>   0.0000 
 15 C       -1.2500     3.0530     0.0320 C.2   1 <1>  -0.1810 
 16 C       -1.6530     4.4740     0.1730 C.3   1 <1>   0.1810 
 17 H       -1.2930     4.8790     1.1240 H     1 <1>   0.0000 
 18 H       -1.2320     5.0730    -0.6400 H     1 <1>   0.0000 
 19 H       -2.7410     4.5840     0.1470 H     1 <1>   0.0000 
@<TRIPOS>BOND
  1   1   2  1   
  2   2   3  1   
  3   2  15  2   
  4   3   4  1   
  5   4   5  1   
  6   4   6  2   
  7   6   7  1   
  8   6  15  1   
  9   7   8  1   
 10   7   9  1   
 11   7  10  1   
 12  10  11  1   
 13  11  12  1   
 14  11  13  1   
 15  11  14  1   
 16  15  16  1   
 17  16  17  1   
 18  16  18  1   
 19  16  19  1   
@<TRIPOS>SUBSTRUCTURE
  1 ****   6 GROUP 4 **** **** 0

# MOE 2022.02 (io_trps.svl 2020.11)

@<TRIPOS>MOLECULE
UNP099
25 25 1 0 0 
SMALL
USER_CHARGES


@<TRIPOS>ATOM
  1 H       -2.8300    -0.7370     0.5710 H     1 <1>   0.1500 
  2 C       -2.2950    -1.6510     0.3230 C.ar  1 <1>  -0.1500 
  3 C       -2.9610    -2.8680     0.4430 C.ar  1 <1>  -0.1500 
  4 H       -3.9940    -2.8680     0.7850 H     1 <1>   0.1500 
  5 C       -2.3210    -4.0690     0.1160 C.ar  1 <1>  -0.1440 
  6 C       -3.0960    -5.3540     0.2470 C.3   1 <1>   0.1440 
  7 H       -4.1270    -5.1730     0.5710 H     1 <1>   0.0000 
  8 H       -2.6270    -6.0060     0.9910 H     1 <1>   0.0000 
  9 H       -3.1430    -5.8710    -0.7170 H     1 <1>   0.0000 
 10 C       -0.9820    -4.0520    -0.3300 C.ar  1 <1>   0.1000 
 11 N       -0.3650    -5.2520    -0.6610 N.pl3 1 <1>  -0.9000 
 12 H       -0.7740    -6.1470    -0.4330 H     1 <1>   0.4000 
 13 H        0.5150    -5.2610    -1.1790 H     1 <1>   0.4000 
 14 C       -0.3170    -2.8040    -0.4200 C.ar  1 <1>  -0.0090 
 15 S        1.4330    -2.7720    -0.8080 S.o2  1 <1>   1.2040 
 16 O        1.7380    -3.9420    -1.6260 O.2   1 <1>  -0.6500 
 17 O        1.7570    -1.4530    -1.3460 O.2   1 <1>  -0.6500 
 18 C        2.1490    -2.9610     0.8510 C.3   1 <1>   1.1250 
 19 F        1.7840    -1.9620     1.7050 F     1 <1>  -0.3400 
 20 F        3.5150    -2.9520     0.8210 F     1 <1>  -0.3400 
 21 F        1.7940    -4.1320     1.4540 F     1 <1>  -0.3400 
 22 C       -0.9700    -1.5930    -0.1160 C.ar  1 <1>   0.1000 
 23 N       -0.3800    -0.3440    -0.2160 N.pl3 1 <1>  -0.9000 
 24 H        0.5190    -0.2260    -0.6860 H     1 <1>   0.4000 
 25 H       -0.8330     0.4870     0.1430 H     1 <1>   0.4000 
@<TRIPOS>BOND
  1   1   2  1   
  2   2   3  ar  
  3   2  22  ar  
  4   3   4  1   
  5   3   5  ar  
  6   5   6  1   
  7   5  10  ar  
  8   6   7  1   
  9   6   8  1   
 10   6   9  1   
 11  10  11  1   
 12  10  14  ar  
 13  11  12  1   
 14  11  13  1   
 15  14  15  1   
 16  14  22  ar  
 17  15  16  2   
 18  15  17  2   
 19  15  18  1   
 20  18  19  1   
 21  18  20  1   
 22  18  21  1   
 23  22  23  1   
 24  23  24  1   
 25  23  25  1   
@<TRIPOS>SUBSTRUCTURE
  1 ****  14 GROUP 4 **** **** 0

# MOE 2022.02 (io_trps.svl 2020.11)

@<TRIPOS>MOLECULE
UNP100
19 19 1 0 0 
SMALL
USER_CHARGES


@<TRIPOS>ATOM
  1 H        1.6070     3.6270     0.1360 H     1 <1>   0.0600 
  2 C        0.7350     2.9700     0.2450 C.2   1 <1>   0.4240 
  3 O       -0.3720     3.4620     0.4510 O.2   1 <1>  -0.5700 
  4 C        0.8950     1.5080     0.1210 C.ar  1 <1>   0.0860 
  5 C        2.1150     0.8470     0.0000 C.ar  1 <1>   0.3960 
  6 C        3.4530     1.5330     0.0310 C.2   1 <1>   0.5440 
  7 O        3.5950     2.7320     0.2360 O.2   1 <1>  -0.5700 
  8 N        4.5260     0.6760    -0.1900 N.am  1 <1>  -0.4210 
  9 H        4.3320    -0.3160    -0.3510 H     1 <1>   0.3700 
 10 N        5.8450     1.1650    -0.1950 N.3   1 <1>  -0.7290 
 11 H        6.1130     1.3350     0.7790 H     1 <1>   0.3600 
 12 H        5.8150     2.1080    -0.6030 H     1 <1>   0.3600 
 13 N        2.2130    -0.5160    -0.1450 N.ar  1 <1>  -0.6200 
 14 C        1.0660    -1.2290    -0.1550 C.ar  1 <1>   0.1600 
 15 H        1.1830    -2.3040    -0.2690 H     1 <1>   0.1500 
 16 C       -0.1860    -0.6590    -0.0300 C.ar  1 <1>  -0.1500 
 17 H       -1.0810    -1.2720    -0.0430 H     1 <1>   0.1500 
 18 C       -0.2690     0.7250     0.1080 C.ar  1 <1>  -0.1500 
 19 H       -1.2490     1.1920     0.2020 H     1 <1>   0.1500 
@<TRIPOS>BOND
  1   1   2  1   
  2   2   3  2   
  3   2   4  1   
  4   4   5  ar  
  5   4  18  ar  
  6   5   6  1   
  7   5  13  ar  
  8   6   7  2   
  9   6   8  am  
 10   8   9  1   
 11   8  10  1   
 12  10  11  1   
 13  10  12  1   
 14  13  14  ar  
 15  14  15  1   
 16  14  16  ar  
 17  16  17  1   
 18  16  18  ar  
 19  18  19  1   
@<TRIPOS>SUBSTRUCTURE
  1 ****   5 GROUP 4 **** **** 0

# MOE 2022.02 (io_trps.svl 2020.11)

@<TRIPOS>MOLECULE
UNP101
16 15 1 0 0 
SMALL
USER_CHARGES


@<TRIPOS>ATOM
  1 H        4.7810    -2.1960     0.2230 H     1 <1>   0.4000 
  2 O        3.9590    -1.8560     0.6180 O.3   1 <1>  -0.6800 
  3 C        3.0740    -1.5770    -0.4610 C.3   1 <1>   0.2800 
  4 H        2.9190    -2.4980    -1.0350 H     1 <1>   0.0000 
  5 H        3.5570    -0.8590    -1.1330 H     1 <1>   0.0000 
  6 C        1.7240    -1.0220     0.0330 C.3   1 <1>   0.2800 
  7 O        0.9050    -0.7690    -1.1150 O.3   1 <1>  -0.6800 
  8 H        0.0550    -0.4160    -0.7990 H     1 <1>   0.4000 
  9 C        1.0050    -2.0400     0.9220 C.3   1 <1>   0.0000 
 10 H        0.0160    -1.6700     1.2190 H     1 <1>   0.0000 
 11 H        1.5730    -2.2660     1.8300 H     1 <1>   0.0000 
 12 H        0.8330    -2.9760     0.3780 H     1 <1>   0.0000 
 13 C        1.9160     0.2960     0.7870 C.3   1 <1>   0.0000 
 14 H        2.3960     1.0430     0.1450 H     1 <1>   0.0000 
 15 H        2.5270     0.1680     1.6870 H     1 <1>   0.0000 
 16 H        0.9500     0.7190     1.0860 H     1 <1>   0.0000 
@<TRIPOS>BOND
  1   1   2  1   
  2   2   3  1   
  3   3   4  1   
  4   3   5  1   
  5   3   6  1   
  6   6   7  1   
  7   6   9  1   
  8   6  13  1   
  9   7   8  1   
 10   9  10  1   
 11   9  11  1   
 12   9  12  1   
 13  13  14  1   
 14  13  15  1   
 15  13  16  1   
@<TRIPOS>SUBSTRUCTURE
  1 ****   6 GROUP 4 **** **** 0

# MOE 2022.02 (io_trps.svl 2020.11)

@<TRIPOS>MOLECULE
UNP102
12 11 1 0 0 
SMALL
USER_CHARGES


@<TRIPOS>ATOM
  1 H       -0.2850     0.7380    -0.8590 H     1 <1>   0.0000 
  2 C        0.7930     0.6810    -0.6720 C.3   1 <1>   0.0000 
  3 H        1.3030     0.6550    -1.6420 H     1 <1>   0.0000 
  4 H        1.0950     1.6050    -0.1650 H     1 <1>   0.0000 
  5 C        1.1340    -0.5430     0.1730 C.3   1 <1>   0.2000 
  6 H        0.6010    -0.4630     1.1280 H     1 <1>   0.0000 
  7 C        2.5810    -0.5920     0.4430 C.1   1 <1>   0.3570 
  8 N        3.7210    -0.6310     0.6580 N.1   1 <1>  -0.5570 
  9 C        0.6810    -1.8230    -0.5240 C.3   1 <1>   0.0000 
 10 H       -0.4000    -1.8080    -0.7020 H     1 <1>   0.0000 
 11 H        0.9080    -2.7040     0.0880 H     1 <1>   0.0000 
 12 H        1.1820    -1.9540    -1.4900 H     1 <1>   0.0000 
@<TRIPOS>BOND
  1   1   2  1   
  2   2   3  1   
  3   2   4  1   
  4   2   5  1   
  5   5   6  1   
  6   5   7  1   
  7   5   9  1   
  8   7   8  3   
  9   9  10  1   
 10   9  11  1   
 11   9  12  1   
@<TRIPOS>SUBSTRUCTURE
  1 ****   5 GROUP 4 **** **** 0

# MOE 2022.02 (io_trps.svl 2020.11)

@<TRIPOS>MOLECULE
UNP103
16 15 1 0 0 
SMALL
USER_CHARGES


@<TRIPOS>ATOM
  1 H        8.1270    -1.4010    -0.2120 H     1 <1>   0.1500 
  2 C        7.1570    -1.8220    -0.4570 C.2   1 <1>  -0.3000 
  3 H        7.1260    -2.5870    -1.2260 H     1 <1>   0.1500 
  4 C        6.0550    -1.4010     0.1750 C.2   1 <1>  -0.1500 
  5 H        6.1470    -0.6310     0.9380 H     1 <1>   0.1500 
  6 C        4.7400    -1.9230    -0.1070 C.2   1 <1>  -0.1500 
  7 H        4.6620    -2.6930    -0.8720 H     1 <1>   0.1500 
  8 C        3.6380    -1.4970     0.5270 C.2   1 <1>  -0.2880 
  9 H        3.7140    -0.7320     1.2980 H     1 <1>   0.1500 
 10 C        2.2580    -2.0290     0.2500 C.3   1 <1>   0.1380 
 11 H        1.8510    -2.4280     1.1880 H     1 <1>   0.0000 
 12 H        2.3050    -2.8700    -0.4530 H     1 <1>   0.0000 
 13 C        1.3430    -0.9350    -0.3020 C.3   1 <1>   0.1900 
 14 H        1.2770    -0.1010     0.4050 H     1 <1>   0.0000 
 15 H        1.7510    -0.5360    -1.2380 H     1 <1>   0.0000 
 16 I       -0.6220    -1.7070    -0.6630 I     1 <1>  -0.1900 
@<TRIPOS>BOND
  1   1   2  1   
  2   2   3  1   
  3   2   4  2   
  4   4   5  1   
  5   4   6  1   
  6   6   7  1   
  7   6   8  2   
  8   8   9  1   
  9   8  10  1   
 10  10  11  1   
 11  10  12  1   
 12  10  13  1   
 13  13  14  1   
 14  13  15  1   
 15  13  16  1   
@<TRIPOS>SUBSTRUCTURE
  1 ****   8 GROUP 4 **** **** 0

# MOE 2022.02 (io_trps.svl 2020.11)

@<TRIPOS>MOLECULE
UNP104
18 18 1 0 0 
SMALL
USER_CHARGES


@<TRIPOS>ATOM
  1 H        6.3140     0.9200     0.7280 H     1 <1>   0.0600 
  2 C        6.2130     0.2620    -0.1460 C.2   1 <1>   0.4960 
  3 O        7.1840     0.0740    -0.8730 O.2   1 <1>  -0.5700 
  4 C        4.8700    -0.3570    -0.3710 C.2   1 <1>   0.1240 
  5 BR       4.7590    -1.4780    -1.8870 Br    1 <1>  -0.1100 
  6 C        3.8320    -0.1170     0.4600 C.2   1 <1>   0.0820 
  7 BR       3.9050     0.9970     1.9820 Br    1 <1>  -0.1100 
  8 C        2.5110    -0.7380     0.2270 C.ar  1 <1>   0.0280 
  9 C        2.2060    -1.9850     0.7890 C.ar  1 <1>  -0.1500 
 10 H        2.9350    -2.5100     1.4020 H     1 <1>   0.1500 
 11 C        0.9590    -2.5700     0.5650 C.ar  1 <1>  -0.1500 
 12 H        0.7260    -3.5390     1.0020 H     1 <1>   0.1500 
 13 C        0.0100    -1.9140    -0.2170 C.ar  1 <1>  -0.1500 
 14 H       -0.9610    -2.3720    -0.3910 H     1 <1>   0.1500 
 15 C        0.3040    -0.6720    -0.7770 C.ar  1 <1>  -0.1500 
 16 H       -0.4380    -0.1620    -1.3870 H     1 <1>   0.1500 
 17 C        1.5500    -0.0830    -0.5560 C.ar  1 <1>  -0.1500 
 18 H        1.7640     0.8870    -1.0000 H     1 <1>   0.1500 
@<TRIPOS>BOND
  1   1   2  1   
  2   2   3  2   
  3   2   4  1   
  4   4   5  1   
  5   4   6  2   
  6   6   7  1   
  7   6   8  1   
  8   8   9  ar  
  9   8  17  ar  
 10   9  10  1   
 11   9  11  ar  
 12  11  12  1   
 13  11  13  ar  
 14  13  14  1   
 15  13  15  ar  
 16  15  16  1   
 17  15  17  ar  
 18  17  18  1   
@<TRIPOS>SUBSTRUCTURE
  1 ****   8 GROUP 4 **** **** 0

# MOE 2022.02 (io_trps.svl 2020.11)

@<TRIPOS>MOLECULE
UNP105
23 22 1 0 0 
SMALL
USER_CHARGES


@<TRIPOS>ATOM
  1 H        0.1840    -0.6610     0.6650 H     1 <1>   0.1500 
  2 C        0.2880     0.3040     0.1700 C.2   1 <1>  -0.2880 
  3 C       -0.7730     0.7980    -0.5010 C.2   1 <1>  -0.2760 
  4 C       -0.7670     2.0950    -1.2660 C.3   1 <1>   0.1380 
  5 H       -1.2000     1.9490    -2.2620 H     1 <1>   0.0000 
  6 H        0.2380     2.4960    -1.4210 H     1 <1>   0.0000 
  7 H       -1.3570     2.8510    -0.7400 H     1 <1>   0.0000 
  8 C       -2.0710     0.0150    -0.5630 C.3   1 <1>   0.1380 
  9 H       -2.3820    -0.0810    -1.6110 H     1 <1>   0.0000 
 10 H       -1.9140    -1.0100    -0.2030 H     1 <1>   0.0000 
 11 C       -3.1860     0.6670     0.2580 C.3   1 <1>   0.0000 
 12 H       -3.4040     1.6710    -0.1230 H     1 <1>   0.0000 
 13 H       -2.8660     0.7810     1.3020 H     1 <1>   0.0000 
 14 C       -4.4610    -0.1610     0.2170 C.3   1 <1>   0.0000 
 15 H       -5.2460     0.3220     0.8060 H     1 <1>   0.0000 
 16 H       -4.8250    -0.2690    -0.8100 H     1 <1>   0.0000 
 17 H       -4.2940    -1.1610     0.6290 H     1 <1>   0.0000 
 18 C        1.6340     0.9330     0.3610 C.3   1 <1>   0.3840 
 19 H        1.9190     0.8350     1.4160 H     1 <1>   0.0000 
 20 H        1.6240     2.0050     0.1380 H     1 <1>   0.0000 
 21 N        2.5970     0.2220    -0.4800 N.2   1 <1>  -0.5460 
 22 C        3.6520     0.6680    -0.7320 C.1   1 <1>   0.5750 
 23 S        5.1050     1.2760    -1.0750 S.2   1 <1>  -0.2750 
@<TRIPOS>BOND
  1   1   2  1   
  2   2   3  2   
  3   2  18  1   
  4   3   4  1   
  5   3   8  1   
  6   4   5  1   
  7   4   6  1   
  8   4   7  1   
  9   8   9  1   
 10   8  10  1   
 11   8  11  1   
 12  11  12  1   
 13  11  13  1   
 14  11  14  1   
 15  14  15  1   
 16  14  16  1   
 17  14  17  1   
 18  18  19  1   
 19  18  20  1   
 20  18  21  1   
 21  21  22  2   
 22  22  23  2   
@<TRIPOS>SUBSTRUCTURE
  1 ****   2 GROUP 4 **** **** 0

# MOE 2022.02 (io_trps.svl 2020.11)

@<TRIPOS>MOLECULE
UNP106
24 24 1 0 0 
SMALL
USER_CHARGES


@<TRIPOS>ATOM
  1 H        9.2390    -2.1290    -0.4000 H     1 <1>   0.4000 
  2 O        8.4750    -1.5660    -0.1780 O.3   1 <1>  -0.3370 
  3 N        7.4090    -2.4670    -0.2930 N.2   1 <1>  -0.5130 
  4 C        6.3030    -1.8650     0.0340 C.2   1 <1>   0.3040 
  5 H        6.3450    -0.8070     0.3250 H     1 <1>   0.0600 
  6 C        4.9830    -2.5490    -0.0080 C.ar  1 <1>   0.3960 
  7 N        5.0570    -3.8340    -0.4630 N.ar  1 <1>  -0.6200 
  8 C        3.9160    -4.5310    -0.5860 C.ar  1 <1>   0.1600 
  9 H        4.0320    -5.5490    -0.9490 H     1 <1>   0.1500 
 10 C        2.6730    -4.0130    -0.2880 C.ar  1 <1>  -0.1500 
 11 H        1.8040    -4.6420    -0.4300 H     1 <1>   0.1500 
 12 C        2.5980    -2.6990     0.1750 C.ar  1 <1>   0.0820 
 13 O        1.4140    -2.0720     0.4830 O.3   1 <1>  -0.3630 
 14 C        0.2330    -2.8660     0.5250 C.3   1 <1>   0.2800 
 15 H       -0.0340    -3.2230    -0.4750 H     1 <1>   0.0000 
 16 H       -0.5840    -2.2300     0.8810 H     1 <1>   0.0000 
 17 H        0.3390    -3.6980     1.2290 H     1 <1>   0.0000 
 18 C        3.7750    -1.9330     0.3270 C.ar  1 <1>   0.0640 
 19 S        3.5990    -0.2450     0.9530 S.o   1 <1>   0.2420 
 20 O        4.8210     0.0490     1.7680 O.2   1 <1>  -0.5000 
 21 C        3.7430     0.6160    -0.6310 C.3   1 <1>   0.1940 
 22 H        3.6880     1.6920    -0.4450 H     1 <1>   0.0000 
 23 H        2.9160     0.3230    -1.2820 H     1 <1>   0.0000 
 24 H        4.6960     0.3850    -1.1110 H     1 <1>   0.0000 
@<TRIPOS>BOND
  1   1   2  1   
  2   2   3  1   
  3   3   4  2   
  4   4   5  1   
  5   4   6  1   
  6   6   7  ar  
  7   6  18  ar  
  8   7   8  ar  
  9   8   9  1   
 10   8  10  ar  
 11  10  11  1   
 12  10  12  ar  
 13  12  13  1   
 14  12  18  ar  
 15  13  14  1   
 16  14  15  1   
 17  14  16  1   
 18  14  17  1   
 19  18  19  1   
 20  19  20  2   
 21  19  21  1   
 22  21  22  1   
 23  21  23  1   
 24  21  24  1   
@<TRIPOS>SUBSTRUCTURE
  1 ****  18 GROUP 4 **** **** 0

# MOE 2022.02 (io_trps.svl 2020.11)

@<TRIPOS>MOLECULE
UNP107
21 20 1 0 0 
SMALL
USER_CHARGES


@<TRIPOS>ATOM
  1 H        9.7640     1.8780     0.7410 H     1 <1>   0.5000 
  2 O        9.0980     2.4660     0.3260 O.3   1 <1>  -0.6500 
  3 C        7.9310     1.8110     0.4700 C.2   1 <1>   0.6590 
  4 O        7.8880     0.7290     1.0290 O.2   1 <1>  -0.5700 
  5 C        6.7820     2.5740    -0.1180 C.3   1 <1>   0.0610 
  6 H        6.7190     3.5460     0.3840 H     1 <1>   0.0000 
  7 H        6.9840     2.7410    -1.1830 H     1 <1>   0.0000 
  8 C        5.4780     1.8080     0.0540 C.3   1 <1>   0.0610 
  9 H        5.2950     1.6090     1.1170 H     1 <1>   0.0000 
 10 H        5.5310     0.8450    -0.4670 H     1 <1>   0.0000 
 11 C        4.2970     2.5800    -0.4900 C.2   1 <1>   0.7200 
 12 O        4.4160     3.6510    -1.0730 O.2   1 <1>  -0.5700 
 13 N        3.1030     1.9290    -0.3030 N.2   1 <1>  -0.6610 
 14 C        2.0610     2.6200     0.0500 C.2   1 <1>   0.3890 
 15 C        0.7590     1.8510     0.1350 C.2   1 <1>   0.5100 
 16 H        0.8380     0.7850    -0.1300 H     1 <1>   0.0600 
 17 O       -0.2810     2.3920     0.4730 O.2   1 <1>  -0.5700 
 18 C        2.0000     4.0930     0.3540 C.3   1 <1>   0.0610 
 19 H        1.8750     4.6480    -0.5800 H     1 <1>   0.0000 
 20 H        2.9120     4.4230     0.8590 H     1 <1>   0.0000 
 21 H        1.1620     4.3230     1.0170 H     1 <1>   0.0000 
@<TRIPOS>BOND
  1   1   2  1   
  2   2   3  1   
  3   3   4  2   
  4   3   5  1   
  5   5   6  1   
  6   5   7  1   
  7   5   8  1   
  8   8   9  1   
  9   8  10  1   
 10   8  11  1   
 11  11  12  2   
 12  11  13  1   
 13  13  14  2   
 14  14  15  1   
 15  14  18  1   
 16  15  16  1   
 17  15  17  2   
 18  18  19  1   
 19  18  20  1   
 20  18  21  1   
@<TRIPOS>SUBSTRUCTURE
  1 ****  11 GROUP 4 **** **** 0

# MOE 2022.02 (io_trps.svl 2020.11)

@<TRIPOS>MOLECULE
UNP108
26 26 1 0 0 
SMALL
USER_CHARGES


@<TRIPOS>ATOM
  1 H       -0.8720     5.9570    -0.0390 H     1 <1>   0.3600 
  2 N       -0.7930     5.0160     0.3440 N.3   1 <1>  -0.9000 
  3 C        0.2420     4.2450    -0.3560 C.3   1 <1>   0.2700 
  4 H        0.3490     4.6300    -1.3770 H     1 <1>   0.0000 
  5 H        1.2020     4.3560     0.1550 H     1 <1>   0.0000 
  6 C       -0.2480     2.7890    -0.4100 C.3   1 <1>   0.2800 
  7 H       -0.3790     2.4540    -1.4480 H     1 <1>   0.0000 
  8 O        0.6330     1.8800     0.2740 O.3   1 <1>  -0.4300 
  9 C        1.8040     1.6250    -0.3690 C.2   1 <1>   0.6590 
 10 O        2.1420     2.1110    -1.4390 O.2   1 <1>  -0.5700 
 11 C        2.6310     0.6650     0.4280 C.3   1 <1>   0.0610 
 12 H        2.0790    -0.2680     0.5730 H     1 <1>   0.0000 
 13 H        2.8910     1.1110     1.3910 H     1 <1>   0.0000 
 14 H        3.5530     0.4420    -0.1160 H     1 <1>   0.0000 
 15 C       -1.6010     2.8100     0.3090 C.3   1 <1>   0.2800 
 16 H       -1.4770     2.5200     1.3620 H     1 <1>   0.0000 
 17 O       -2.4970     1.8970    -0.3470 O.3   1 <1>  -0.4300 
 18 C       -3.6780     1.6800     0.2930 C.2   1 <1>   0.6590 
 19 O       -4.0290     2.2130     1.3350 O.2   1 <1>  -0.5700 
 20 C       -4.5020     0.6930    -0.4750 C.3   1 <1>   0.0610 
 21 H       -5.4320     0.4970     0.0680 H     1 <1>   0.0000 
 22 H       -4.7510     1.1030    -1.4570 H     1 <1>   0.0000 
 23 H       -3.9560    -0.2480    -0.5770 H     1 <1>   0.0000 
 24 C       -2.0350     4.2650     0.1650 C.3   1 <1>   0.2700 
 25 H       -2.4710     4.4530    -0.8240 H     1 <1>   0.0000 
 26 H       -2.7770     4.5490     0.9160 H     1 <1>   0.0000 
@<TRIPOS>BOND
  1   1   2  1   
  2   2   3  1   
  3   2  24  1   
  4   3   4  1   
  5   3   5  1   
  6   3   6  1   
  7   6   7  1   
  8   6   8  1   
  9   6  15  1   
 10   8   9  1   
 11   9  10  2   
 12   9  11  1   
 13  11  12  1   
 14  11  13  1   
 15  11  14  1   
 16  15  16  1   
 17  15  17  1   
 18  15  24  1   
 19  17  18  1   
 20  18  19  2   
 21  18  20  1   
 22  20  21  1   
 23  20  22  1   
 24  20  23  1   
 25  24  25  1   
 26  24  26  1   
@<TRIPOS>SUBSTRUCTURE
  1 ****  15 GROUP 4 **** **** 0

# MOE 2022.02 (io_trps.svl 2020.11)

@<TRIPOS>MOLECULE
UNP109
12 13 1 0 0 
SMALL
USER_CHARGES


@<TRIPOS>ATOM
  1 H       -1.6460    -2.5760     0.6240 H     1 <1>   0.1500 
  2 C       -1.5040    -1.5130     0.5260 C.2   1 <1>  -0.2660 
  3 C       -2.2730    -0.5020     0.9540 C.2   1 <1>  -0.2660 
  4 H       -3.2050    -0.5260     1.4920 H     1 <1>   0.1500 
  5 C       -1.5120     0.6760     0.4620 C.3   1 <1>   0.3740 
  6 H       -1.9240     1.6790     0.5680 H     1 <1>   0.0000 
  7 O       -1.0630     0.3380    -0.9550 O.3   1 <1>  -0.5160 
  8 C       -0.4050    -0.7800    -0.1550 C.3   1 <1>   0.3740 
  9 H        0.3610    -1.3270    -0.7040 H     1 <1>   0.0000 
 10 C        0.0040     0.4020     0.8090 C.3   1 <1>   0.0000 
 11 H        0.7290     1.1200     0.4150 H     1 <1>   0.0000 
 12 H        0.2410     0.1440     1.8450 H     1 <1>   0.0000 
@<TRIPOS>BOND
  1   1   2  1   
  2   2   3  2   
  3   2   8  1   
  4   3   4  1   
  5   3   5  1   
  6   5   6  1   
  7   5   7  1   
  8   5  10  1   
  9   7   8  1   
 10   8   9  1   
 11   8  10  1   
 12  10  11  1   
 13  10  12  1   
@<TRIPOS>SUBSTRUCTURE
  1 ****   8 GROUP 4 **** **** 0

# MOE 2022.02 (io_trps.svl 2020.11)

@<TRIPOS>MOLECULE
UNP110
30 30 1 0 0 
SMALL
USER_CHARGES


@<TRIPOS>ATOM
  1 H        0.2910    -2.3750    -0.3530 H     1 <1>   0.0600 
  2 C        0.4320    -1.3260    -0.6640 C.2   1 <1>   0.4240 
  3 O       -0.4490    -0.7120    -1.2510 O.2   1 <1>  -0.5700 
  4 C        1.7310    -0.7060    -0.3350 C.ar  1 <1>   0.0860 
  5 C        2.6980    -1.4600     0.3240 C.ar  1 <1>  -0.1500 
  6 H        2.4960    -2.4980     0.5860 H     1 <1>   0.1500 
  7 C        3.9390    -0.8870     0.6490 C.ar  1 <1>   0.0860 
  8 C        4.9190    -1.7770     1.3250 C.2   1 <1>   0.4240 
  9 H        5.9380    -1.4010     1.4910 H     1 <1>   0.0600 
 10 O        4.6150    -2.9110     1.6800 O.2   1 <1>  -0.5700 
 11 C        4.2250     0.4630     0.3300 C.ar  1 <1>  -0.1440 
 12 C        5.5440     1.0990     0.7240 C.3   1 <1>   0.1440 
 13 H        5.4020     2.1640     0.9440 H     1 <1>   0.0000 
 14 H        5.8870     0.6930     1.6820 H     1 <1>   0.0000 
 15 C        6.6170     0.9130    -0.3520 C.3   1 <1>   0.0000 
 16 H        6.7710    -0.1550    -0.5490 H     1 <1>   0.0000 
 17 H        6.2830     1.3600    -1.2960 H     1 <1>   0.0000 
 18 C        7.9410     1.5470     0.0730 C.3   1 <1>   0.0000 
 19 H        7.7990     2.6190     0.2550 H     1 <1>   0.0000 
 20 H        8.2820     1.1010     1.0150 H     1 <1>   0.0000 
 21 C        9.0160     1.3580    -0.9850 C.3   1 <1>   0.0000 
 22 H        8.7210     1.8230    -1.9310 H     1 <1>   0.0000 
 23 H        9.2050     0.2960    -1.1670 H     1 <1>   0.0000 
 24 H        9.9550     1.8180    -0.6580 H     1 <1>   0.0000 
 25 C        3.2340     1.1970    -0.3680 C.ar  1 <1>   0.0860 
 26 C        3.4440     2.6000    -0.8140 C.2   1 <1>   0.4240 
 27 H        4.4510     3.0290    -0.7130 H     1 <1>   0.0600 
 28 O        2.5390     3.2710    -1.2950 O.2   1 <1>  -0.5700 
 29 C        1.9960     0.6150    -0.6860 C.ar  1 <1>  -0.1500 
 30 H        1.2360     1.1930    -1.2140 H     1 <1>   0.1500 
@<TRIPOS>BOND
  1   1   2  1   
  2   2   3  2   
  3   2   4  1   
  4   4   5  ar  
  5   4  29  ar  
  6   5   6  1   
  7   5   7  ar  
  8   7   8  1   
  9   7  11  ar  
 10   8   9  1   
 11   8  10  2   
 12  11  12  1   
 13  11  25  ar  
 14  12  13  1   
 15  12  14  1   
 16  12  15  1   
 17  15  16  1   
 18  15  17  1   
 19  15  18  1   
 20  18  19  1   
 21  18  20  1   
 22  18  21  1   
 23  21  22  1   
 24  21  23  1   
 25  21  24  1   
 26  25  26  1   
 27  25  29  ar  
 28  26  27  1   
 29  26  28  2   
 30  29  30  1   
@<TRIPOS>SUBSTRUCTURE
  1 ****  11 GROUP 4 **** **** 0

# MOE 2022.02 (io_trps.svl 2020.11)

@<TRIPOS>MOLECULE
UNP111
39 38 1 0 0 
SMALL
USER_CHARGES


@<TRIPOS>ATOM
  1 H        3.4110    -4.2470    -0.6040 H     1 <1>   0.0600 
  2 C        3.7100    -4.0780     0.4450 C.2   1 <1>   0.4490 
  3 O        4.0570    -5.0190     1.1530 O.2   1 <1>  -0.5700 
  4 C        3.7190    -2.6290     0.8950 C.3   1 <1>   0.3410 
  5 H        3.8260    -2.5830     1.9850 H     1 <1>   0.0000 
  6 O        2.4630    -2.0890     0.4470 O.3   1 <1>  -0.4300 
  7 C        1.4470    -2.0820     1.3540 C.2   1 <1>   0.6590 
  8 O        1.5500    -2.4510     2.5180 O.2   1 <1>  -0.5700 
  9 C        0.1230    -1.5770     0.7370 C.3   1 <1>   0.3310 
 10 H       -0.6000    -1.6350     1.5640 H     1 <1>   0.0000 
 11 N       -0.3490    -2.4990    -0.3470 N.3   1 <1>  -0.8100 
 12 C       -0.4050    -3.8930     0.1310 C.3   1 <1>   0.2700 
 13 H       -1.0560    -4.0010     1.0070 H     1 <1>   0.0000 
 14 H       -0.7780    -4.5560    -0.6580 H     1 <1>   0.0000 
 15 H        0.5900    -4.2720     0.3840 H     1 <1>   0.0000 
 16 C       -1.6880    -2.1420    -0.8310 C.3   1 <1>   0.2700 
 17 H       -1.6830    -1.1940    -1.3710 H     1 <1>   0.0000 
 18 H       -2.0470    -2.8810    -1.5570 H     1 <1>   0.0000 
 19 H       -2.4200    -2.0840    -0.0170 H     1 <1>   0.0000 
 20 C        0.3130    -0.0650     0.3860 C.3   1 <1>   0.0000 
 21 H        1.0680     0.3370     1.0780 H     1 <1>   0.0000 
 22 C       -0.9520     0.7640     0.6380 C.3   1 <1>   0.0000 
 23 H       -0.7360     1.8320     0.5200 H     1 <1>   0.0000 
 24 H       -1.7630     0.5190    -0.0500 H     1 <1>   0.0000 
 25 H       -1.3160     0.6160     1.6600 H     1 <1>   0.0000 
 26 C        0.8530     0.2050    -1.0240 C.3   1 <1>   0.0000 
 27 H        1.7530    -0.3770    -1.2360 H     1 <1>   0.0000 
 28 H        1.1190     1.2630    -1.1280 H     1 <1>   0.0000 
 29 H        0.1170    -0.0190    -1.8010 H     1 <1>   0.0000 
 30 C        4.8650    -1.8570     0.2140 C.3   1 <1>   0.0000 
 31 H        4.7780    -1.9720    -0.8750 H     1 <1>   0.0000 
 32 C        4.7770    -0.3590     0.5230 C.3   1 <1>   0.0000 
 33 H        5.6030     0.1840     0.0500 H     1 <1>   0.0000 
 34 H        3.8450     0.0730     0.1460 H     1 <1>   0.0000 
 35 H        4.8250    -0.1740     1.6020 H     1 <1>   0.0000 
 36 C        6.2350    -2.3880     0.6450 C.3   1 <1>   0.0000 
 37 H        6.3630    -2.3180     1.7310 H     1 <1>   0.0000 
 38 H        6.3670    -3.4350     0.3530 H     1 <1>   0.0000 
 39 H        7.0400    -1.8140     0.1730 H     1 <1>   0.0000 
@<TRIPOS>BOND
  1   1   2  1   
  2   2   3  2   
  3   2   4  1   
  4   4   5  1   
  5   4   6  1   
  6   4  30  1   
  7   6   7  1   
  8   7   8  2   
  9   7   9  1   
 10   9  10  1   
 11   9  11  1   
 12   9  20  1   
 13  11  12  1   
 14  11  16  1   
 15  12  13  1   
 16  12  14  1   
 17  12  15  1   
 18  16  17  1   
 19  16  18  1   
 20  16  19  1   
 21  20  21  1   
 22  20  22  1   
 23  20  26  1   
 24  22  23  1   
 25  22  24  1   
 26  22  25  1   
 27  26  27  1   
 28  26  28  1   
 29  26  29  1   
 30  30  31  1   
 31  30  32  1   
 32  30  36  1   
 33  32  33  1   
 34  32  34  1   
 35  32  35  1   
 36  36  37  1   
 37  36  38  1   
 38  36  39  1   
@<TRIPOS>SUBSTRUCTURE
  1 ****   6 GROUP 4 **** **** 0

# MOE 2022.02 (io_trps.svl 2020.11)

@<TRIPOS>MOLECULE
UNP112
21 22 1 0 0 
SMALL
USER_CHARGES


@<TRIPOS>ATOM
  1 H        0.5360    -1.7060     2.0890 H     1 <1>   0.0600 
  2 C        0.7140    -0.7380     1.5900 C.2   1 <1>   0.5100 
  3 O        0.3110     0.3120     2.0750 O.2   1 <1>  -0.5700 
  4 C        1.4530    -0.7830     0.2880 C.3   1 <1>   0.0530 
  5 O        2.1280    -2.0150     0.2230 O.3   1 <1>  -0.2960 
  6 C        3.0130    -0.9250     0.1430 C.3   1 <1>   0.0530 
  7 C        3.7460    -1.0280    -1.1590 C.2   1 <1>   0.5100 
  8 H        3.7160    -2.0090    -1.6650 H     1 <1>   0.0600 
  9 O        4.3600    -0.0820    -1.6380 O.2   1 <1>  -0.5700 
 10 C        3.5220     0.0330     1.1550 C.3   1 <1>   0.0950 
 11 H        4.6180     0.0720     1.1370 H     1 <1>   0.0000 
 12 H        3.2510    -0.2510     2.1790 H     1 <1>   0.0000 
 13 C        2.9470     1.4410     0.8000 C.3   1 <1>   0.0000 
 14 H        3.7790     2.1310     0.6110 H     1 <1>   0.0000 
 15 H        2.4460     1.8390     1.6920 H     1 <1>   0.0000 
 16 C        1.9500     1.5210    -0.4120 C.3   1 <1>   0.0000 
 17 H        1.2620     2.3590    -0.2410 H     1 <1>   0.0000 
 18 H        2.5140     1.7980    -1.3110 H     1 <1>   0.0000 
 19 C        1.1220     0.2370    -0.7380 C.3   1 <1>   0.0950 
 20 H        1.3280    -0.1100    -1.7570 H     1 <1>   0.0000 
 21 H        0.0520     0.4780    -0.7140 H     1 <1>   0.0000 
@<TRIPOS>BOND
  1   1   2  1   
  2   2   3  2   
  3   2   4  1   
  4   4   5  1   
  5   4   6  1   
  6   4  19  1   
  7   5   6  1   
  8   6   7  1   
  9   6  10  1   
 10   7   8  1   
 11   7   9  2   
 12  10  11  1   
 13  10  12  1   
 14  10  13  1   
 15  13  14  1   
 16  13  15  1   
 17  13  16  1   
 18  16  17  1   
 19  16  18  1   
 20  16  19  1   
 21  19  20  1   
 22  19  21  1   
@<TRIPOS>SUBSTRUCTURE
  1 ****   6 GROUP 4 **** **** 0

# MOE 2022.02 (io_trps.svl 2020.11)

@<TRIPOS>MOLECULE
UNP113
16 16 1 0 0 
SMALL
USER_CHARGES


@<TRIPOS>ATOM
  1 H        4.9590     0.0630     0.0090 H     1 <1>   0.1500 
  2 C        5.3200    -0.9590     0.0020 C.2   1 <1>  -0.3000 
  3 H        6.3970    -1.0930     0.0000 H     1 <1>   0.1500 
  4 C        4.5110    -2.0270    -0.0030 C.2   1 <1>  -0.1780 
  5 H        4.9760    -3.0120    -0.0090 H     1 <1>   0.1500 
  6 C        3.0380    -2.0170    -0.0010 C.ar  1 <1>   0.0280 
  7 C        2.3640    -3.2480     0.0020 C.ar  1 <1>  -0.1500 
  8 H        2.9210    -4.1830     0.0040 H     1 <1>   0.1500 
  9 C        0.9670    -3.3060     0.0040 C.ar  1 <1>  -0.1500 
 10 H        0.4650    -4.2700     0.0060 H     1 <1>   0.1500 
 11 C        0.2210    -2.1310     0.0020 C.ar  1 <1>  -0.1500 
 12 H       -0.8650    -2.1740     0.0030 H     1 <1>   0.1500 
 13 C        0.8720    -0.9010    -0.0020 C.ar  1 <1>  -0.1500 
 14 H        0.2940     0.0200    -0.0040 H     1 <1>   0.1500 
 15 C        2.2700    -0.8440    -0.0030 C.ar  1 <1>  -0.1500 
 16 H        2.7410     0.1340    -0.0070 H     1 <1>   0.1500 
@<TRIPOS>BOND
  1   1   2  1   
  2   2   3  1   
  3   2   4  2   
  4   4   5  1   
  5   4   6  1   
  6   6   7  ar  
  7   6  15  ar  
  8   7   8  1   
  9   7   9  ar  
 10   9  10  1   
 11   9  11  ar  
 12  11  12  1   
 13  11  13  ar  
 14  13  14  1   
 15  13  15  ar  
 16  15  16  1   
@<TRIPOS>SUBSTRUCTURE
  1 ****   6 GROUP 4 **** **** 0

# MOE 2022.02 (io_trps.svl 2020.11)

@<TRIPOS>MOLECULE
UNP114
20 20 1 0 0 
SMALL
USER_CHARGES


@<TRIPOS>ATOM
  1 H        8.8700     1.1250     0.7980 H     1 <1>   0.0000 
  2 C        8.5770     0.1090     0.5170 C.3   1 <1>   0.2000 
  3 H        8.8170    -0.5570     1.3510 H     1 <1>   0.0000 
  4 H        9.1820    -0.1930    -0.3430 H     1 <1>   0.0000 
  5 C        7.1520     0.0490     0.1980 C.1   1 <1>  -0.2000 
  6 C        5.9830     0.0010    -0.0650 C.1   1 <1>   0.0640 
  7 N        4.6650    -0.0540    -0.3600 N.pl3 1 <1>  -0.8020 
  8 C        3.8950     1.1540    -0.6190 C.3   1 <1>   0.3690 
  9 H        4.4460     2.0580    -0.3350 H     1 <1>   0.0000 
 10 H        3.6910     1.2090    -1.6950 H     1 <1>   0.0000 
 11 C        2.5660     1.0970     0.1500 C.3   1 <1>   0.2800 
 12 H        1.9260     1.9330    -0.1520 H     1 <1>   0.0000 
 13 H        2.7350     1.1790     1.2310 H     1 <1>   0.0000 
 14 O        1.8480    -0.1210    -0.1160 O.3   1 <1>  -0.5600 
 15 C        2.6340    -1.2580     0.2860 C.3   1 <1>   0.2800 
 16 H        2.0440    -2.1580     0.0850 H     1 <1>   0.0000 
 17 H        2.8030    -1.2050     1.3690 H     1 <1>   0.0000 
 18 C        3.9660    -1.3260    -0.4750 C.3   1 <1>   0.3690 
 19 H        3.7690    -1.5160    -1.5370 H     1 <1>   0.0000 
 20 H        4.5670    -2.1590    -0.0910 H     1 <1>   0.0000 
@<TRIPOS>BOND
  1   1   2  1   
  2   2   3  1   
  3   2   4  1   
  4   2   5  1   
  5   5   6  3   
  6   6   7  1   
  7   7   8  1   
  8   7  18  1   
  9   8   9  1   
 10   8  10  1   
 11   8  11  1   
 12  11  12  1   
 13  11  13  1   
 14  11  14  1   
 15  14  15  1   
 16  15  16  1   
 17  15  17  1   
 18  15  18  1   
 19  18  19  1   
 20  18  20  1   
@<TRIPOS>SUBSTRUCTURE
  1 ****   7 GROUP 4 **** **** 0

# MOE 2022.02 (io_trps.svl 2020.11)

@<TRIPOS>MOLECULE
UNP115
23 23 1 0 0 
SMALL
USER_CHARGES


@<TRIPOS>ATOM
  1 H        4.3500    -0.9740     2.1480 H     1 <1>   0.4000 
  2 O        4.3880    -0.2070     1.5430 O.3   1 <1>  -0.6800 
  3 C        4.0030    -0.7460     0.2750 C.3   1 <1>   0.4240 
  4 H        4.3670    -0.0600    -0.5000 H     1 <1>   0.0000 
  5 C        2.4880    -0.7290     0.2090 C.ar  1 <1>  -0.1440 
  6 C        1.6920    -1.8620     0.4290 C.ar  1 <1>  -0.1500 
  7 H        2.1390    -2.8220     0.6710 H     1 <1>   0.1500 
  8 C        0.2980    -1.7830     0.3570 C.ar  1 <1>  -0.1500 
  9 H       -0.3040    -2.6720     0.5310 H     1 <1>   0.1500 
 10 C       -0.3230    -0.5690     0.0750 C.ar  1 <1>  -0.1500 
 11 H       -1.4060    -0.5090     0.0240 H     1 <1>   0.1500 
 12 C        0.4490     0.5710    -0.1280 C.ar  1 <1>  -0.1500 
 13 H       -0.0300     1.5250    -0.3340 H     1 <1>   0.1500 
 14 C        1.8410     0.4920    -0.0560 C.ar  1 <1>  -0.1500 
 15 H        2.4300     1.3970    -0.1990 H     1 <1>   0.1500 
 16 C        4.7080    -2.1130     0.0700 C.3   1 <1>   0.2800 
 17 H        4.2530    -2.6620    -0.7620 H     1 <1>   0.0000 
 18 O        4.5810    -2.9020     1.2650 O.3   1 <1>  -0.6800 
 19 H        5.0550    -3.7390     1.1100 H     1 <1>   0.4000 
 20 C        6.1990    -1.9290    -0.2030 C.3   1 <1>   0.0000 
 21 H        6.6850    -2.9010    -0.3400 H     1 <1>   0.0000 
 22 H        6.7000    -1.4460     0.6430 H     1 <1>   0.0000 
 23 H        6.3680    -1.3290    -1.1020 H     1 <1>   0.0000 
@<TRIPOS>BOND
  1   1   2  1   
  2   2   3  1   
  3   3   4  1   
  4   3   5  1   
  5   3  16  1   
  6   5   6  ar  
  7   5  14  ar  
  8   6   7  1   
  9   6   8  ar  
 10   8   9  1   
 11   8  10  ar  
 12  10  11  1   
 13  10  12  ar  
 14  12  13  1   
 15  12  14  ar  
 16  14  15  1   
 17  16  17  1   
 18  16  18  1   
 19  16  20  1   
 20  18  19  1   
 21  20  21  1   
 22  20  22  1   
 23  20  23  1   
@<TRIPOS>SUBSTRUCTURE
  1 ****   5 GROUP 4 **** **** 0

# MOE 2022.02 (io_trps.svl 2020.11)

@<TRIPOS>MOLECULE
UNP116
30 30 1 0 0 
SMALL
USER_CHARGES


@<TRIPOS>ATOM
  1 H       -0.4420     2.3860     0.4460 H     1 <1>   0.1500 
  2 C        0.2100     2.0500     1.2460 C.2   1 <1>  -0.3000 
  3 H       -0.1830     2.0840     2.2580 H     1 <1>   0.1500 
  4 C        1.4530     1.6090     1.0130 C.2   1 <1>  -0.2880 
  5 H        2.0550     1.2800     1.8590 H     1 <1>   0.1500 
  6 C        2.0870     1.5190    -0.3650 C.3   1 <1>   0.1380 
  7 H        1.3760     1.9150    -1.1030 H     1 <1>   0.0000 
  8 C        2.3440     0.0460    -0.7310 C.3   1 <1>   0.2800 
  9 H        1.4260    -0.5440    -0.6260 H     1 <1>   0.0000 
 10 H        2.6530    -0.0350    -1.7820 H     1 <1>   0.0000 
 11 O        3.3510    -0.5850     0.0730 O.3   1 <1>  -0.3570 
 12 C        4.4420     0.1940     0.3500 C.2   1 <1>  -0.0730 
 13 H        5.2110    -0.4050     0.8250 H     1 <1>   0.1500 
 14 C        4.5530     1.5090     0.1050 C.2   1 <1>  -0.1240 
 15 C        5.8300     2.1450     0.4890 C.2   1 <1>   0.7060 
 16 O        5.9250     3.1060     1.2350 O.2   1 <1>  -0.5700 
 17 O        6.8570     1.5120    -0.1340 O.3   1 <1>  -0.4300 
 18 C        8.1400     2.0670     0.1590 C.3   1 <1>   0.2800 
 19 H        8.8930     1.4780    -0.3720 H     1 <1>   0.0000 
 20 H        8.3490     2.0080     1.2320 H     1 <1>   0.0000 
 21 H        8.1980     3.1020    -0.1920 H     1 <1>   0.0000 
 22 C        3.4230     2.3090    -0.5040 C.3   1 <1>   0.1380 
 23 H        3.6510     2.3520    -1.5800 H     1 <1>   0.0000 
 24 C        3.3240     3.7780    -0.0320 C.3   1 <1>   0.0000 
 25 H        3.1540     3.8300     1.0500 H     1 <1>   0.0000 
 26 H        4.2770     4.2850    -0.2250 H     1 <1>   0.0000 
 27 C        2.2520     4.5850    -0.7550 C.3   1 <1>   0.0000 
 28 H        2.3120     5.6360    -0.4560 H     1 <1>   0.0000 
 29 H        2.3910     4.5360    -1.8400 H     1 <1>   0.0000 
 30 H        1.2450     4.2340    -0.5200 H     1 <1>   0.0000 
@<TRIPOS>BOND
  1   1   2  1   
  2   2   3  1   
  3   2   4  2   
  4   4   5  1   
  5   4   6  1   
  6   6   7  1   
  7   6   8  1   
  8   6  22  1   
  9   8   9  1   
 10   8  10  1   
 11   8  11  1   
 12  11  12  1   
 13  12  13  1   
 14  12  14  2   
 15  14  15  1   
 16  14  22  1   
 17  15  16  2   
 18  15  17  1   
 19  17  18  1   
 20  18  19  1   
 21  18  20  1   
 22  18  21  1   
 23  22  23  1   
 24  22  24  1   
 25  24  25  1   
 26  24  26  1   
 27  24  27  1   
 28  27  28  1   
 29  27  29  1   
 30  27  30  1   
@<TRIPOS>SUBSTRUCTURE
  1 ****  14 GROUP 4 **** **** 0

# MOE 2022.02 (io_trps.svl 2020.11)

@<TRIPOS>MOLECULE
UNP117
13 12 1 0 0 
SMALL
USER_CHARGES


@<TRIPOS>ATOM
  1 H        1.0350     1.3230     1.9270 H     1 <1>   0.4000 
  2 N        1.7940     1.0770     1.2820 N.2   1 <1>  -0.8500 
  3 C        1.4060     0.0360     0.6360 C.2   1 <1>   0.7320 
  4 S        2.3850    -0.7600    -0.5540 S.3   1 <1>  -0.3710 
  5 C        3.9150     0.1840    -0.4070 C.3   1 <1>   0.2300 
  6 H        4.3210     0.1110     0.6060 H     1 <1>   0.0000 
  7 H        4.6550    -0.2230    -1.1020 H     1 <1>   0.0000 
  8 H        3.7490     1.2350    -0.6620 H     1 <1>   0.0000 
  9 S       -0.1680    -0.6190     0.9640 S.3   1 <1>  -0.3710 
 10 C       -1.0690     0.1510    -0.3990 C.3   1 <1>   0.2300 
 11 H       -0.6950    -0.2070    -1.3620 H     1 <1>   0.0000 
 12 H       -0.9720     1.2390    -0.3550 H     1 <1>   0.0000 
 13 H       -2.1290    -0.1070    -0.3220 H     1 <1>   0.0000 
@<TRIPOS>BOND
  1   1   2  1   
  2   2   3  2   
  3   3   4  1   
  4   3   9  1   
  5   4   5  1   
  6   5   6  1   
  7   5   7  1   
  8   5   8  1   
  9   9  10  1   
 10  10  11  1   
 11  10  12  1   
 12  10  13  1   
@<TRIPOS>SUBSTRUCTURE
  1 ****   3 GROUP 4 **** **** 0

# MOE 2022.02 (io_trps.svl 2020.11)

@<TRIPOS>MOLECULE
UNP118
40 41 1 0 0 
SMALL
USER_CHARGES


@<TRIPOS>ATOM
  1 H        9.0580     2.2260    -1.4520 H     1 <1>   0.4000 
  2 O        8.2220     2.6500    -1.1910 O.3   1 <1>  -0.6800 
  3 C        7.4780     1.6780    -0.4560 C.3   1 <1>   0.2800 
  4 H        7.2850     0.8370    -1.1320 H     1 <1>   0.0000 
  5 H        8.1010     1.3140     0.3700 H     1 <1>   0.0000 
  6 C        6.1580     2.2850     0.0500 C.3   1 <1>   0.1990 
  7 H        5.7000     2.7780    -0.8060 H     1 <1>   0.0000 
  8 C        5.2260     1.1710     0.5240 C.2   1 <1>   0.4480 
  9 O        5.6390     0.0190     0.7020 O.2   1 <1>  -0.5700 
 10 C        3.7850     1.4990     0.8780 C.3   1 <1>   0.0610 
 11 H        3.7720     1.8690     1.9090 H     1 <1>   0.0000 
 12 H        3.2510     0.5390     0.8780 H     1 <1>   0.0000 
 13 C        3.0490     2.4500    -0.0620 C.3   1 <1>   0.0000 
 14 H        3.3140     2.2130    -1.1040 H     1 <1>   0.0000 
 15 C        3.1220     3.9740     0.2690 C.3   1 <1>   0.1160 
 16 H        3.1710     4.1580     1.3530 H     1 <1>   0.0000 
 17 C        4.1790     4.7660    -0.4310 C.2   1 <1>  -0.2540 
 18 C        4.1900     4.8860    -1.7700 C.2   1 <1>  -0.3000 
 19 H        4.9630     5.4600    -2.2740 H     1 <1>   0.1500 
 20 H        3.4530     4.4130    -2.4100 H     1 <1>   0.1500 
 21 C        5.2280     5.4270     0.4320 C.3   1 <1>   0.2760 
 22 H        4.7080     6.1560     1.0680 H     1 <1>   0.0000 
 23 H        5.9340     6.0090    -0.1730 H     1 <1>   0.0000 
 24 C        6.0240     4.5170     1.3350 C.2   1 <1>  -0.2880 
 25 H        6.3670     5.0230     2.2390 H     1 <1>   0.1500 
 26 C        6.3990     3.2320     1.2030 C.2   1 <1>  -0.2880 
 27 H        6.9880     2.8100     2.0190 H     1 <1>   0.1500 
 28 C        1.6550     4.0940    -0.2120 C.3   1 <1>   0.0000 
 29 H        1.0370     4.7820     0.3750 H     1 <1>   0.0000 
 30 H        1.5110     4.3450    -1.2690 H     1 <1>   0.0000 
 31 C        1.4790     2.5750     0.1050 C.3   1 <1>   0.0000 
 32 C        0.7170     1.8050    -0.9760 C.3   1 <1>   0.0000 
 33 H       -0.3410     2.0870    -0.9930 H     1 <1>   0.0000 
 34 H        1.1220     2.0030    -1.9750 H     1 <1>   0.0000 
 35 H        0.7790     0.7260    -0.8010 H     1 <1>   0.0000 
 36 C        0.9110     2.2940     1.5030 C.3   1 <1>   0.2800 
 37 H        1.4770     2.8090     2.2850 H     1 <1>   0.0000 
 38 H        0.9200     1.2210     1.7190 H     1 <1>   0.0000 
 39 O       -0.4340     2.7530     1.5650 O.3   1 <1>  -0.6800 
 40 H       -0.7740     2.5320     2.4490 H     1 <1>   0.4000 
@<TRIPOS>BOND
  1   1   2  1   
  2   2   3  1   
  3   3   4  1   
  4   3   5  1   
  5   3   6  1   
  6   6   7  1   
  7   6   8  1   
  8   6  26  1   
  9   8   9  2   
 10   8  10  1   
 11  10  11  1   
 12  10  12  1   
 13  10  13  1   
 14  13  14  1   
 15  13  15  1   
 16  13  31  1   
 17  15  16  1   
 18  15  17  1   
 19  15  28  1   
 20  17  18  2   
 21  17  21  1   
 22  18  19  1   
 23  18  20  1   
 24  21  22  1   
 25  21  23  1   
 26  21  24  1   
 27  24  25  1   
 28  24  26  2   
 29  26  27  1   
 30  28  29  1   
 31  28  30  1   
 32  28  31  1   
 33  31  32  1   
 34  31  36  1   
 35  32  33  1   
 36  32  34  1   
 37  32  35  1   
 38  36  37  1   
 39  36  38  1   
 40  36  39  1   
 41  39  40  1   
@<TRIPOS>SUBSTRUCTURE
  1 ****  13 GROUP 4 **** **** 0

# MOE 2022.02 (io_trps.svl 2020.11)

@<TRIPOS>MOLECULE
UNP119
7 6 1 0 0 
SMALL
USER_CHARGES


@<TRIPOS>ATOM
  1 H        1.5660     1.3670    -1.5340 H     1 <1>   0.0600 
  2 C        1.8690     0.4960    -0.9290 C.2   1 <1>   0.4490 
  3 O        3.0420     0.1260    -0.9340 O.2   1 <1>  -0.5700 
  4 C        0.7380    -0.1340    -0.1540 C.3   1 <1>   1.0810 
  5 F       -0.2580    -0.5560    -0.9800 F     1 <1>  -0.3400 
  6 F        0.1650     0.7570     0.7020 F     1 <1>  -0.3400 
  7 F        1.1110    -1.2070     0.5900 F     1 <1>  -0.3400 
@<TRIPOS>BOND
  1   1   2  1   
  2   2   3  2   
  3   2   4  1   
  4   4   5  1   
  5   4   6  1   
  6   4   7  1   
@<TRIPOS>SUBSTRUCTURE
  1 ****   4 GROUP 4 **** **** 0

# MOE 2022.02 (io_trps.svl 2020.11)

@<TRIPOS>MOLECULE
UNP120
17 17 1 0 0 
SMALL
USER_CHARGES


@<TRIPOS>ATOM
  1 H        0.3050    -1.9270     1.0980 H     1 <1>   0.0600 
  2 C        0.4690    -0.8410     0.9830 C.2   1 <1>   0.4490 
  3 O       -0.2620    -0.0460     1.5680 O.2   1 <1>  -0.5700 
  4 C        1.5440    -0.4410    -0.0010 C.3   1 <1>   0.2910 
  5 H        1.1940    -0.6770    -1.0100 H     1 <1>   0.0000 
  6 S        3.0630    -1.4000     0.3190 S.3   1 <1>  -0.4600 
  7 C        4.2070     0.0070     0.1200 C.3   1 <1>   0.2910 
  8 H        5.0370    -0.2720    -0.5360 H     1 <1>   0.0000 
  9 C        4.7920     0.3600     1.4730 C.2   1 <1>   0.4490 
 10 H        5.2990    -0.4670     2.0000 H     1 <1>   0.0600 
 11 O        4.7880     1.4870     1.9600 O.2   1 <1>  -0.5700 
 12 C        3.3620     1.1130    -0.5000 C.3   1 <1>   0.0000 
 13 H        3.7910     2.1080    -0.3360 H     1 <1>   0.0000 
 14 H        3.2960     0.9680    -1.5860 H     1 <1>   0.0000 
 15 C        1.9700     1.0150     0.1130 C.3   1 <1>   0.0000 
 16 H        1.2650     1.6680    -0.4140 H     1 <1>   0.0000 
 17 H        1.9880     1.3500     1.1580 H     1 <1>   0.0000 
@<TRIPOS>BOND
  1   1   2  1   
  2   2   3  2   
  3   2   4  1   
  4   4   5  1   
  5   4   6  1   
  6   4  15  1   
  7   6   7  1   
  8   7   8  1   
  9   7   9  1   
 10   7  12  1   
 11   9  10  1   
 12   9  11  2   
 13  12  13  1   
 14  12  14  1   
 15  12  15  1   
 16  15  16  1   
 17  15  17  1   
@<TRIPOS>SUBSTRUCTURE
  1 ****  15 GROUP 4 **** **** 0

# MOE 2022.02 (io_trps.svl 2020.11)

@<TRIPOS>MOLECULE
UNP121
21 21 1 0 0 
SMALL
USER_CHARGES


@<TRIPOS>ATOM
  1 H        6.5500    -2.5400     0.3630 H     1 <1>   0.4000 
  2 O        5.8890    -3.2310     0.1750 O.3   1 <1>  -0.4000 
  3 O        5.0350    -2.4080    -0.6710 O.3   1 <1>  -0.2800 
  4 C        3.7660    -2.3390    -0.0110 C.3   1 <1>   0.2800 
  5 H        3.9270    -2.2190     1.0690 H     1 <1>   0.0000 
  6 C        3.0260    -1.1060    -0.5380 C.3   1 <1>   0.0000 
  7 H        2.9860    -1.1410    -1.6350 H     1 <1>   0.0000 
  8 H        3.5960    -0.2020    -0.2920 H     1 <1>   0.0000 
  9 C        1.6160    -1.0060     0.0370 C.3   1 <1>   0.1380 
 10 H        1.6690    -0.8100     1.1150 H     1 <1>   0.0000 
 11 H        1.1000    -0.1510    -0.4170 H     1 <1>   0.0000 
 12 C        0.8580    -2.2900    -0.1890 C.2   1 <1>  -0.2760 
 13 C       -0.3410    -2.3230    -0.7910 C.2   1 <1>  -0.3000 
 14 H       -0.8290    -1.4170    -1.1370 H     1 <1>   0.1500 
 15 H       -0.8690    -3.2580    -0.9530 H     1 <1>   0.1500 
 16 C        1.5580    -3.5370     0.2890 C.3   1 <1>   0.1380 
 17 H        1.0010    -4.4400     0.0100 H     1 <1>   0.0000 
 18 H        1.6070    -3.5190     1.3850 H     1 <1>   0.0000 
 19 C        2.9700    -3.6190    -0.2870 C.3   1 <1>   0.0000 
 20 H        3.4930    -4.4840     0.1380 H     1 <1>   0.0000 
 21 H        2.9270    -3.8000    -1.3690 H     1 <1>   0.0000 
@<TRIPOS>BOND
  1   1   2  1   
  2   2   3  1   
  3   3   4  1   
  4   4   5  1   
  5   4   6  1   
  6   4  19  1   
  7   6   7  1   
  8   6   8  1   
  9   6   9  1   
 10   9  10  1   
 11   9  11  1   
 12   9  12  1   
 13  12  13  2   
 14  12  16  1   
 15  13  14  1   
 16  13  15  1   
 17  16  17  1   
 18  16  18  1   
 19  16  19  1   
 20  19  20  1   
 21  19  21  1   
@<TRIPOS>SUBSTRUCTURE
  1 ****   4 GROUP 4 **** **** 0

# MOE 2022.02 (io_trps.svl 2020.11)

@<TRIPOS>MOLECULE
UNP122
9 8 1 0 0 
SMALL
USER_CHARGES


@<TRIPOS>ATOM
  1 H        0.1690    -1.3650    -0.0890 H     1 <1>   0.0600 
  2 C        0.1750    -0.2880    -0.3240 C.2   1 <1>   0.5700 
  3 O       -0.8190     0.3150    -0.7040 O.2   1 <1>  -0.5700 
  4 N        1.3860     0.3130    -0.1530 N.am  1 <1>  -0.7300 
  5 H        1.4140     1.3040    -0.3630 H     1 <1>   0.3700 
  6 C        2.5740    -0.3650     0.2930 C.3   1 <1>   0.3000 
  7 H        2.3840    -1.4300     0.4520 H     1 <1>   0.0000 
  8 H        3.3490    -0.2360    -0.4660 H     1 <1>   0.0000 
  9 H        2.9020     0.0970     1.2270 H     1 <1>   0.0000 
@<TRIPOS>BOND
  1   1   2  1   
  2   2   3  2   
  3   2   4  am  
  4   4   5  1   
  5   4   6  1   
  6   6   7  1   
  7   6   8  1   
  8   6   9  1   
@<TRIPOS>SUBSTRUCTURE
  1 ****   4 GROUP 4 **** **** 0

# MOE 2022.02 (io_trps.svl 2020.11)

@<TRIPOS>MOLECULE
UNP123
19 18 1 0 0 
SMALL
USER_CHARGES


@<TRIPOS>ATOM
  1 H       -0.1990     2.5380    -0.7980 H     1 <1>   0.0600 
  2 C       -0.1730     1.6920    -0.0900 C.2   1 <1>   0.4490 
  3 O       -1.1320     1.4510     0.6370 O.2   1 <1>  -0.5700 
  4 C        1.0700     0.8430    -0.1250 C.3   1 <1>   0.0610 
  5 H        1.1130     0.3510    -1.1020 H     1 <1>   0.0000 
  6 H        0.9900     0.0700     0.6470 H     1 <1>   0.0000 
  7 C        2.3060     1.7070     0.1010 C.3   1 <1>   0.0000 
  8 H        2.3690     2.4740    -0.6810 H     1 <1>   0.0000 
  9 H        2.2120     2.2410     1.0550 H     1 <1>   0.0000 
 10 C        3.5810     0.8630     0.1040 C.3   1 <1>   0.0000 
 11 H        3.5150     0.1010     0.8900 H     1 <1>   0.0000 
 12 H        3.6740     0.3350    -0.8530 H     1 <1>   0.0000 
 13 C        4.8180     1.7280     0.3330 C.3   1 <1>   0.0000 
 14 H        4.8990     2.4920    -0.4490 H     1 <1>   0.0000 
 15 H        4.7330     2.2700     1.2820 H     1 <1>   0.0000 
 16 C        6.0900     0.8990     0.3500 C.3   1 <1>   0.3400 
 17 H        6.2460     0.3800    -0.6000 H     1 <1>   0.0000 
 18 H        6.0830     0.1660     1.1610 H     1 <1>   0.0000 
 19 F        7.1460     1.7330     0.5490 F     1 <1>  -0.3400 
@<TRIPOS>BOND
  1   1   2  1   
  2   2   3  2   
  3   2   4  1   
  4   4   5  1   
  5   4   6  1   
  6   4   7  1   
  7   7   8  1   
  8   7   9  1   
  9   7  10  1   
 10  10  11  1   
 11  10  12  1   
 12  10  13  1   
 13  13  14  1   
 14  13  15  1   
 15  13  16  1   
 16  16  17  1   
 17  16  18  1   
 18  16  19  1   
@<TRIPOS>SUBSTRUCTURE
  1 ****   7 GROUP 4 **** **** 0

# MOE 2022.02 (io_trps.svl 2020.11)

@<TRIPOS>MOLECULE
UNP124
16 16 1 0 0 
SMALL
USER_CHARGES


@<TRIPOS>ATOM
  1 H        4.5630    -1.0270    -0.7250 H     1 <1>   0.3600 
  2 N        4.1620    -0.1120    -0.9250 N.3   1 <1>  -0.9900 
  3 H        3.8660    -0.1420    -1.8950 H     1 <1>   0.3600 
  4 C        3.0250     0.0340    -0.0670 C.3   1 <1>   0.5400 
  5 H        3.3430     0.0810     0.9820 H     1 <1>   0.0000 
  6 N        2.1890    -1.1250    -0.2960 N.3   1 <1>  -0.9000 
  7 H        2.0540    -1.2250    -1.3000 H     1 <1>   0.3600 
  8 C        0.8920    -0.7510     0.2890 C.3   1 <1>   0.2700 
  9 H        0.0710    -1.2730    -0.2130 H     1 <1>   0.0000 
 10 H        0.8680    -1.0350     1.3470 H     1 <1>   0.0000 
 11 C        0.7770     0.7630     0.1420 C.3   1 <1>   0.0000 
 12 H       -0.0360     1.0490    -0.5340 H     1 <1>   0.0000 
 13 H        0.5890     1.2270     1.1160 H     1 <1>   0.0000 
 14 C        2.1230     1.2030    -0.4140 C.3   1 <1>   0.0000 
 15 H        2.4660     2.1460     0.0230 H     1 <1>   0.0000 
 16 H        2.0410     1.3470    -1.4990 H     1 <1>   0.0000 
@<TRIPOS>BOND
  1   1   2  1   
  2   2   3  1   
  3   2   4  1   
  4   4   5  1   
  5   4   6  1   
  6   4  14  1   
  7   6   7  1   
  8   6   8  1   
  9   8   9  1   
 10   8  10  1   
 11   8  11  1   
 12  11  12  1   
 13  11  13  1   
 14  11  14  1   
 15  14  15  1   
 16  14  16  1   
@<TRIPOS>SUBSTRUCTURE
  1 ****   4 GROUP 4 **** **** 0

# MOE 2022.02 (io_trps.svl 2020.11)

@<TRIPOS>MOLECULE
UNP125
34 35 1 0 0 
SMALL
USER_CHARGES


@<TRIPOS>ATOM
  1 H       11.8570     2.5330    -0.7900 H     1 <1>   0.4000 
  2 O       11.0820     3.1040    -0.6580 O.3   1 <1>  -0.6800 
  3 C        9.9850     2.2420    -0.3770 C.3   1 <1>   0.4180 
  4 H        9.9000     1.5630    -1.2330 H     1 <1>   0.0000 
  5 H       10.2260     1.6540     0.5150 H     1 <1>   0.0000 
  6 C        8.6930     2.9880    -0.1630 C.2   1 <1>  -0.1240 
  7 C        7.5010     2.1010    -0.3610 C.2   1 <1>   0.7060 
  8 O        7.5920     0.8840    -0.4520 O.2   1 <1>  -0.5700 
  9 O        6.3480     2.8060    -0.4390 O.3   1 <1>  -0.4300 
 10 C        5.1850     1.9950    -0.6470 C.3   1 <1>   0.4610 
 11 H        5.2980     1.4260    -1.5780 H     1 <1>   0.0000 
 12 H        5.0820     1.2940     0.1910 H     1 <1>   0.0000 
 13 C        3.9550     2.8370    -0.7500 C.2   1 <1>  -0.1810 
 14 C        3.8240     4.1080    -1.4110 C.2   1 <1>  -0.1500 
 15 H        4.6150     4.6420    -1.9230 H     1 <1>   0.1500 
 16 C        2.5150     4.5450    -1.2850 C.2   1 <1>  -0.3020 
 17 H        2.0250     5.4410    -1.6390 H     1 <1>   0.1500 
 18 N        1.8720     3.5920    -0.5850 N.pl3 1 <1>   0.0480 
 19 C        2.7010     2.5630    -0.2560 C.2   1 <1>  -0.3320 
 20 C        1.9730     1.5260     0.5050 C.3   1 <1>   0.1800 
 21 H        2.1870     0.5130     0.1550 H     1 <1>   0.0000 
 22 H        2.2070     1.5990     1.5720 H     1 <1>   0.0000 
 23 C        0.4970     1.9150     0.2420 C.3   1 <1>   0.0000 
 24 H       -0.1550     1.6900     1.0910 H     1 <1>   0.0000 
 25 H        0.1240     1.3450    -0.6190 H     1 <1>   0.0000 
 26 C        0.5130     3.4120    -0.1130 C.3   1 <1>   0.2560 
 27 H        0.3800     4.0490     0.7660 H     1 <1>   0.0000 
 28 H       -0.1910     3.6720    -0.9060 H     1 <1>   0.0000 
 29 C        8.5280     4.2870     0.1670 C.2   1 <1>  -0.2880 
 30 H        7.5230     4.6960     0.2640 H     1 <1>   0.1500 
 31 C        9.5990     5.2840     0.4740 C.3   1 <1>   0.1380 
 32 H       10.4790     4.8300     0.9360 H     1 <1>   0.0000 
 33 H        9.8910     5.8240    -0.4320 H     1 <1>   0.0000 
 34 H        9.2170     6.0170     1.1930 H     1 <1>   0.0000 
@<TRIPOS>BOND
  1   1   2  1   
  2   2   3  1   
  3   3   4  1   
  4   3   5  1   
  5   3   6  1   
  6   6   7  1   
  7   6  29  2   
  8   7   8  2   
  9   7   9  1   
 10   9  10  1   
 11  10  11  1   
 12  10  12  1   
 13  10  13  1   
 14  13  14  1   
 15  13  19  2   
 16  14  15  1   
 17  14  16  2   
 18  16  17  1   
 19  16  18  1   
 20  18  19  1   
 21  18  26  1   
 22  19  20  1   
 23  20  21  1   
 24  20  22  1   
 25  20  23  1   
 26  23  24  1   
 27  23  25  1   
 28  23  26  1   
 29  26  27  1   
 30  26  28  1   
 31  29  30  1   
 32  29  31  1   
 33  31  32  1   
 34  31  33  1   
 35  31  34  1   
@<TRIPOS>SUBSTRUCTURE
  1 ****   9 GROUP 4 **** **** 0

# MOE 2022.02 (io_trps.svl 2020.11)

@<TRIPOS>MOLECULE
UNP126
18 18 1 0 0 
SMALL
USER_CHARGES


@<TRIPOS>ATOM
  1 H        5.8850    -0.5570    -0.8370 H     1 <1>   0.4000 
  2 O        5.2450     0.1450    -1.0410 O.3   1 <1>  -0.6800 
  3 C        4.4190     0.2230     0.1070 C.3   1 <1>   0.5600 
  4 H        5.0490     0.3290     0.9950 H     1 <1>   0.0000 
  5 O        3.6530    -0.9770     0.1790 O.3   1 <1>  -0.5600 
  6 C        2.2960    -0.6590    -0.1280 C.3   1 <1>   0.5600 
  7 H        1.8680    -1.4260    -0.7810 H     1 <1>   0.0000 
  8 O        1.5770    -0.6360     1.0910 O.3   1 <1>  -0.6800 
  9 H        1.5550    -1.5630     1.3840 H     1 <1>   0.4000 
 10 C        2.3070     0.7130    -0.7890 C.3   1 <1>   0.0000 
 11 H        2.5990     0.5950    -1.8410 H     1 <1>   0.0000 
 12 C        1.0020     1.4870    -0.7210 C.3   1 <1>   0.0000 
 13 H        1.1020     2.4500    -1.2320 H     1 <1>   0.0000 
 14 H        0.6980     1.6900     0.3110 H     1 <1>   0.0000 
 15 H        0.1970     0.9270    -1.2090 H     1 <1>   0.0000 
 16 C        3.4500     1.3810    -0.0490 C.3   1 <1>   0.0000 
 17 H        3.1160     1.7270     0.9370 H     1 <1>   0.0000 
 18 H        3.8690     2.2300    -0.5980 H     1 <1>   0.0000 
@<TRIPOS>BOND
  1   1   2  1   
  2   2   3  1   
  3   3   4  1   
  4   3   5  1   
  5   3  16  1   
  6   5   6  1   
  7   6   7  1   
  8   6   8  1   
  9   6  10  1   
 10   8   9  1   
 11  10  11  1   
 12  10  12  1   
 13  10  16  1   
 14  12  13  1   
 15  12  14  1   
 16  12  15  1   
 17  16  17  1   
 18  16  18  1   
@<TRIPOS>SUBSTRUCTURE
  1 ****  10 GROUP 4 **** **** 0

# MOE 2022.02 (io_trps.svl 2020.11)

@<TRIPOS>MOLECULE
UNP127
17 17 1 0 0 
SMALL
USER_CHARGES


@<TRIPOS>ATOM
  1 H       -4.0110     2.6060    -1.3520 H     1 <1>   0.1500 
  2 C       -3.3210     2.2460    -0.6000 C.2   1 <1>   0.0770 
  3 N       -1.9640     2.3060    -0.8460 N.2   1 <1>  -0.5650 
  4 C       -1.3010     1.8230     0.1860 C.2   1 <1>   0.1980 
  5 C        0.2010     1.7360     0.2680 C.3   1 <1>   0.1800 
  6 H        0.4960     1.3000     1.2310 H     1 <1>   0.0000 
  7 C        0.7440     0.8310    -0.8390 C.3   1 <1>   0.0000 
  8 H        0.3140    -0.1740    -0.7690 H     1 <1>   0.0000 
  9 H        1.8330     0.7370    -0.7630 H     1 <1>   0.0000 
 10 H        0.5090     1.2250    -1.8340 H     1 <1>   0.0000 
 11 C        0.8230     3.1290     0.1780 C.3   1 <1>   0.0000 
 12 H        1.9130     3.0740     0.2750 H     1 <1>   0.0000 
 13 H        0.5930     3.6140    -0.7780 H     1 <1>   0.0000 
 14 H        0.4470     3.7780     0.9780 H     1 <1>   0.0000 
 15 S       -2.2770     1.2750     1.4950 S.3   1 <1>  -0.0800 
 16 C       -3.6810     1.7160     0.6190 C.2   1 <1>  -0.1100 
 17 H       -4.6720     1.5710     1.0240 H     1 <1>   0.1500 
@<TRIPOS>BOND
  1   1   2  1   
  2   2   3  1   
  3   2  16  2   
  4   3   4  2   
  5   4   5  1   
  6   4  15  1   
  7   5   6  1   
  8   5   7  1   
  9   5  11  1   
 10   7   8  1   
 11   7   9  1   
 12   7  10  1   
 13  11  12  1   
 14  11  13  1   
 15  11  14  1   
 16  15  16  1   
 17  16  17  1   
@<TRIPOS>SUBSTRUCTURE
  1 ****   4 GROUP 4 **** **** 0

# MOE 2022.02 (io_trps.svl 2020.11)

@<TRIPOS>MOLECULE
UNP128
25 24 1 0 0 
SMALL
USER_CHARGES


@<TRIPOS>ATOM
  1 H       -0.7880    -0.7030     1.4440 H     1 <1>   0.4000 
  2 O       -0.1530    -1.4210     1.2760 O.3   1 <1>  -0.6800 
  3 C       -0.5120    -2.0380     0.0350 C.3   1 <1>   0.2800 
  4 H       -0.4700    -1.2710    -0.7460 H     1 <1>   0.0000 
  5 C       -1.9530    -2.5260     0.1610 C.3   1 <1>   0.0000 
  6 H       -2.6090    -1.7070     0.4780 H     1 <1>   0.0000 
  7 H       -2.0360    -3.3070     0.9250 H     1 <1>   0.0000 
  8 H       -2.3370    -2.9160    -0.7850 H     1 <1>   0.0000 
  9 C        0.4910    -3.1770    -0.2690 C.3   1 <1>   0.1380 
 10 H        0.4010    -3.9120     0.5440 H     1 <1>   0.0000 
 11 C        1.9440    -2.7030    -0.3040 C.2   1 <1>  -0.0610 
 12 O        2.3050    -1.9310    -1.3950 O.3   1 <1>  -0.3570 
 13 C        2.4100    -0.5440    -1.0630 C.3   1 <1>   0.2800 
 14 H        3.1240    -0.3730    -0.2510 H     1 <1>   0.0000 
 15 H        1.4370    -0.1240    -0.7970 H     1 <1>   0.0000 
 16 H        2.7740    -0.0170    -1.9500 H     1 <1>   0.0000 
 17 C        2.8420    -3.1600     0.5870 C.2   1 <1>  -0.1360 
 18 H        2.5540    -3.7950     1.4160 H     1 <1>   0.1500 
 19 C        4.2870    -2.8810     0.4910 C.2   1 <1>   0.4960 
 20 H        4.6270    -2.3150    -0.3910 H     1 <1>   0.0600 
 21 O        5.0690    -3.2730     1.3490 O.2   1 <1>  -0.5700 
 22 C        0.1580    -3.9120    -1.5740 C.3   1 <1>   0.0000 
 23 H       -0.7900    -4.4530    -1.4930 H     1 <1>   0.0000 
 24 H        0.9290    -4.6530    -1.8170 H     1 <1>   0.0000 
 25 H        0.0800    -3.2170    -2.4170 H     1 <1>   0.0000 
@<TRIPOS>BOND
  1   1   2  1   
  2   2   3  1   
  3   3   4  1   
  4   3   5  1   
  5   3   9  1   
  6   5   6  1   
  7   5   7  1   
  8   5   8  1   
  9   9  10  1   
 10   9  11  1   
 11   9  22  1   
 12  11  12  1   
 13  11  17  2   
 14  12  13  1   
 15  13  14  1   
 16  13  15  1   
 17  13  16  1   
 18  17  18  1   
 19  17  19  1   
 20  19  20  1   
 21  19  21  2   
 22  22  23  1   
 23  22  24  1   
 24  22  25  1   
@<TRIPOS>SUBSTRUCTURE
  1 ****  11 GROUP 4 **** **** 0

# MOE 2022.02 (io_trps.svl 2020.11)

@<TRIPOS>MOLECULE
UNP129
14 14 1 0 0 
SMALL
USER_CHARGES


@<TRIPOS>ATOM
  1 H       -0.3240     0.2590     0.0050 H     1 <1>   0.4000 
  2 N        0.4880    -0.3550     0.0000 N.2   1 <1>  -0.8500 
  3 C        1.5660     0.3470    -0.0040 C.2   1 <1>   0.7110 
  4 N        2.7310    -0.3710    -0.0110 N.2   1 <1>  -0.6610 
  5 C        3.8280     0.3220    -0.0160 C.2   1 <1>   0.4360 
  6 C        5.1240    -0.4530    -0.0230 C.2   1 <1>   0.5100 
  7 H        5.0030    -1.5480    -0.0220 H     1 <1>   0.0600 
  8 O        6.2050     0.1150    -0.0310 O.2   1 <1>  -0.5700 
  9 C        3.9330     1.8070    -0.0150 C.2   1 <1>  -0.1360 
 10 H        4.8930     2.3020    -0.0200 H     1 <1>   0.1500 
 11 C        2.7480     2.4240    -0.0070 C.2   1 <1>  -0.0500 
 12 H        2.6460     3.5040    -0.0050 H     1 <1>   0.1500 
 13 N        1.5790     1.7130    -0.0010 N.pl3 1 <1>  -0.5500 
 14 H        0.7080     2.2220     0.0050 H     1 <1>   0.4000 
@<TRIPOS>BOND
  1   1   2  1   
  2   2   3  2   
  3   3   4  1   
  4   3  13  1   
  5   4   5  2   
  6   5   6  1   
  7   5   9  1   
  8   6   7  1   
  9   6   8  2   
 10   9  10  1   
 11   9  11  2   
 12  11  12  1   
 13  11  13  1   
 14  13  14  1   
@<TRIPOS>SUBSTRUCTURE
  1 ****   5 GROUP 4 **** **** 0

# MOE 2022.02 (io_trps.svl 2020.11)

@<TRIPOS>MOLECULE
UNP130
26 26 1 0 0 
SMALL
USER_CHARGES


@<TRIPOS>ATOM
  1 H        8.4290    -3.3820     0.3020 H     1 <1>   0.0600 
  2 C        8.5370    -2.3240     0.0030 C.2   1 <1>   0.4490 
  3 O        9.6380    -1.8840    -0.3180 O.2   1 <1>  -0.5700 
  4 C        7.2540    -1.5050     0.0710 C.3   1 <1>   0.3310 
  5 H        6.9210    -1.5420     1.1150 H     1 <1>   0.0000 
  6 N        6.2650    -2.1830    -0.7880 N.3   1 <1>  -0.7300 
  7 H        6.4470    -1.9350    -1.7650 H     1 <1>   0.3600 
  8 O        4.9990    -1.4880    -0.5560 O.3   1 <1>  -0.1800 
  9 C        4.0070    -2.4450    -0.1610 C.3   1 <1>   0.4240 
 10 H        3.8310    -3.1310    -0.9980 H     1 <1>   0.0000 
 11 H        4.3600    -3.0210     0.7030 H     1 <1>   0.0000 
 12 C        2.7380    -1.7250     0.2160 C.ar  1 <1>  -0.1440 
 13 C        2.7640    -0.6690     1.1400 C.ar  1 <1>  -0.1500 
 14 H        3.7080    -0.3440     1.5730 H     1 <1>   0.1500 
 15 C        1.5850    -0.0200     1.5110 C.ar  1 <1>  -0.1500 
 16 H        1.6180     0.8000     2.2230 H     1 <1>   0.1500 
 17 C        0.3670    -0.4250     0.9700 C.ar  1 <1>  -0.1500 
 18 H       -0.5510     0.0790     1.2590 H     1 <1>   0.1500 
 19 C        0.3260    -1.4780     0.0580 C.ar  1 <1>  -0.1500 
 20 H       -0.6250    -1.7940    -0.3630 H     1 <1>   0.1500 
 21 C        1.5050    -2.1270    -0.3160 C.ar  1 <1>  -0.1500 
 22 H        1.4520    -2.9480    -1.0270 H     1 <1>   0.1500 
 23 C        7.4960    -0.0550    -0.3410 C.3   1 <1>   0.0000 
 24 H        8.2650     0.4020     0.2910 H     1 <1>   0.0000 
 25 H        6.5880     0.5480    -0.2440 H     1 <1>   0.0000 
 26 H        7.8430     0.0150    -1.3790 H     1 <1>   0.0000 
@<TRIPOS>BOND
  1   1   2  1   
  2   2   3  2   
  3   2   4  1   
  4   4   5  1   
  5   4   6  1   
  6   4  23  1   
  7   6   7  1   
  8   6   8  1   
  9   8   9  1   
 10   9  10  1   
 11   9  11  1   
 12   9  12  1   
 13  12  13  ar  
 14  12  21  ar  
 15  13  14  1   
 16  13  15  ar  
 17  15  16  1   
 18  15  17  ar  
 19  17  18  1   
 20  17  19  ar  
 21  19  20  1   
 22  19  21  ar  
 23  21  22  1   
 24  23  24  1   
 25  23  25  1   
 26  23  26  1   
@<TRIPOS>SUBSTRUCTURE
  1 ****   8 GROUP 4 **** **** 0

# MOE 2022.02 (io_trps.svl 2020.11)

@<TRIPOS>MOLECULE
UNP131
15 14 1 0 0 
SMALL
USER_CHARGES


@<TRIPOS>ATOM
  1 H        6.0600    -0.0410    -0.4240 H     1 <1>   0.1500 
  2 C        5.7150    -0.6170     0.4300 C.2   1 <1>  -0.3000 
  3 H        6.4580    -1.2020     0.9660 H     1 <1>   0.1500 
  4 C        4.4290    -0.6280     0.8070 C.2   1 <1>  -0.2880 
  5 H        4.1520    -1.2210     1.6760 H     1 <1>   0.1500 
  6 C        3.3500     0.1650     0.1270 C.3   1 <1>   0.2430 
  7 H        3.7510     0.8210    -0.6530 H     1 <1>   0.0000 
  8 H        2.8130     0.7820     0.8540 H     1 <1>   0.0000 
  9 S        2.1510    -0.9070    -0.6700 S.o2  1 <1>   1.0900 
 10 O        2.8390    -1.8010    -1.5820 O.2   1 <1>  -0.6500 
 11 O        1.0750    -0.0600    -1.1530 O.2   1 <1>  -0.6500 
 12 C        1.4790    -1.8890     0.6510 C.3   1 <1>   0.1050 
 13 H        1.1140    -1.2230     1.4350 H     1 <1>   0.0000 
 14 H        2.2490    -2.5600     1.0350 H     1 <1>   0.0000 
 15 H        0.6510    -2.4750     0.2470 H     1 <1>   0.0000 
@<TRIPOS>BOND
  1   1   2  1   
  2   2   3  1   
  3   2   4  2   
  4   4   5  1   
  5   4   6  1   
  6   6   7  1   
  7   6   8  1   
  8   6   9  1   
  9   9  10  2   
 10   9  11  2   
 11   9  12  1   
 12  12  13  1   
 13  12  14  1   
 14  12  15  1   
@<TRIPOS>SUBSTRUCTURE
  1 ****   9 GROUP 4 **** **** 0

# MOE 2022.02 (io_trps.svl 2020.11)

@<TRIPOS>MOLECULE
UNP132
22 21 1 0 0 
SMALL
USER_CHARGES


@<TRIPOS>ATOM
  1 H        0.2520    -0.8310    -0.6760 H     1 <1>   0.0000 
  2 C        0.3440    -0.0580     0.0970 C.3   1 <1>   0.2700 
  3 H       -0.5720     0.5430     0.0950 H     1 <1>   0.0000 
  4 H        0.3900    -0.5510     1.0750 H     1 <1>   0.0000 
  5 N        1.5190     0.7920    -0.1090 N.3   1 <1>  -0.8100 
  6 C        1.3970     1.5020    -1.3840 C.3   1 <1>   0.2700 
  7 H        1.4120     0.8180    -2.2400 H     1 <1>   0.0000 
  8 H        2.2000     2.2350    -1.5090 H     1 <1>   0.0000 
  9 H        0.4620     2.0710    -1.4180 H     1 <1>   0.0000 
 10 C        2.7470    -0.0200    -0.0430 C.3   1 <1>   0.2700 
 11 H        2.7150    -0.6320     0.8690 H     1 <1>   0.0000 
 12 H        2.7800    -0.7230    -0.8870 H     1 <1>   0.0000 
 13 C        4.0580     0.7970    -0.0030 C.3   1 <1>   0.0000 
 14 H        4.1620     1.3720    -0.9310 H     1 <1>   0.0000 
 15 C        5.2570    -0.1530     0.0740 C.3   1 <1>   0.0000 
 16 H        5.2660    -0.8380    -0.7800 H     1 <1>   0.0000 
 17 H        5.2320    -0.7530     0.9900 H     1 <1>   0.0000 
 18 H        6.1980     0.4070     0.0620 H     1 <1>   0.0000 
 19 C        4.0920     1.7710     1.1760 C.3   1 <1>   0.0000 
 20 H        5.0440     2.3120     1.2050 H     1 <1>   0.0000 
 21 H        3.9740     1.2450     2.1300 H     1 <1>   0.0000 
 22 H        3.2950     2.5180     1.0990 H     1 <1>   0.0000 
@<TRIPOS>BOND
  1   1   2  1   
  2   2   3  1   
  3   2   4  1   
  4   2   5  1   
  5   5   6  1   
  6   5  10  1   
  7   6   7  1   
  8   6   8  1   
  9   6   9  1   
 10  10  11  1   
 11  10  12  1   
 12  10  13  1   
 13  13  14  1   
 14  13  15  1   
 15  13  19  1   
 16  15  16  1   
 17  15  17  1   
 18  15  18  1   
 19  19  20  1   
 20  19  21  1   
 21  19  22  1   
@<TRIPOS>SUBSTRUCTURE
  1 ****  10 GROUP 4 **** **** 0

# MOE 2022.02 (io_trps.svl 2020.11)

@<TRIPOS>MOLECULE
UNP133
17 17 1 0 0 
SMALL
USER_CHARGES


@<TRIPOS>ATOM
  1 H       -4.6140     1.7350    -0.2840 H     1 <1>   0.1500 
  2 C       -3.5300     1.7670    -0.2230 C.ar  1 <1>  -0.1500 
  3 C       -2.8740     2.9820    -0.0490 C.ar  1 <1>  -0.1500 
  4 H       -3.4450     3.9030     0.0250 H     1 <1>   0.1500 
  5 C       -1.4770     3.0220     0.0300 C.ar  1 <1>  -0.1500 
  6 H       -1.0010     3.9880     0.1660 H     1 <1>   0.1500 
  7 C       -0.7100     1.8550    -0.0620 C.ar  1 <1>   0.1000 
  8 N        0.6700     1.8420     0.0100 N.pl3 1 <1>  -0.8690 
  9 H        1.1450     0.9520    -0.0660 H     1 <1>   0.4000 
 10 C        1.4800     3.0230     0.1870 C.3   1 <1>   0.3690 
 11 H        2.5380     2.7420     0.2090 H     1 <1>   0.0000 
 12 H        1.3400     3.7270    -0.6390 H     1 <1>   0.0000 
 13 H        1.2500     3.5220     1.1340 H     1 <1>   0.0000 
 14 C       -1.3920     0.6430    -0.2360 C.ar  1 <1>  -0.1500 
 15 H       -0.8350    -0.2870    -0.3130 H     1 <1>   0.1500 
 16 C       -2.7880     0.5940    -0.3160 C.ar  1 <1>  -0.1500 
 17 H       -3.2900    -0.3590    -0.4520 H     1 <1>   0.1500 
@<TRIPOS>BOND
  1   1   2  1   
  2   2   3  ar  
  3   2  16  ar  
  4   3   4  1   
  5   3   5  ar  
  6   5   6  1   
  7   5   7  ar  
  8   7   8  1   
  9   7  14  ar  
 10   8   9  1   
 11   8  10  1   
 12  10  11  1   
 13  10  12  1   
 14  10  13  1   
 15  14  15  1   
 16  14  16  ar  
 17  16  17  1   
@<TRIPOS>SUBSTRUCTURE
  1 ****   7 GROUP 4 **** **** 0

# MOE 2022.02 (io_trps.svl 2020.11)

@<TRIPOS>MOLECULE
UNP134
26 25 1 0 0 
SMALL
USER_CHARGES


@<TRIPOS>ATOM
  1 H        9.9860    -2.0760     0.7010 H     1 <1>   0.5000 
  2 O        9.2680    -2.7230     0.5340 O.3   1 <1>  -0.6500 
  3 C        8.2180    -1.9560     0.1540 C.2   1 <1>   0.6590 
  4 O        8.3380    -0.7420     0.0710 O.2   1 <1>  -0.5700 
  5 C        6.9410    -2.7760    -0.1880 C.3   1 <1>   0.6010 
  6 H        6.9880    -3.0010    -1.2600 H     1 <1>   0.0000 
  7 N        6.8720    -3.9910     0.6090 N.3   1 <1>  -0.9900 
  8 H        6.6420    -3.6980     1.5560 H     1 <1>   0.3600 
  9 H        7.8180    -4.3730     0.6640 H     1 <1>   0.3600 
 10 N        5.7580    -2.0040     0.1840 N.3   1 <1>  -0.9000 
 11 H        5.9530    -1.0300    -0.0640 H     1 <1>   0.3600 
 12 C        4.5710    -2.4550    -0.5600 C.3   1 <1>   0.2700 
 13 H        4.6800    -2.1880    -1.6190 H     1 <1>   0.0000 
 14 H        4.4860    -3.5490    -0.5140 H     1 <1>   0.0000 
 15 C        3.2810    -1.8490     0.0160 C.3   1 <1>   0.0610 
 16 H        3.2150    -2.1280     1.0760 H     1 <1>   0.0000 
 17 C        2.1100    -2.4790    -0.7020 C.2   1 <1>   0.6590 
 18 O        2.0660    -2.8250    -1.8700 O.2   1 <1>  -0.5700 
 19 O        1.0310    -2.6010     0.0960 O.3   1 <1>  -0.6500 
 20 H        0.3350    -2.9730    -0.4870 H     1 <1>   0.5000 
 21 C        3.2000    -0.3330    -0.1520 C.3   1 <1>   0.0610 
 22 H        3.0500    -0.0520    -1.2010 H     1 <1>   0.0000 
 23 H        4.1090     0.1620     0.2060 H     1 <1>   0.0000 
 24 C        2.0660     0.2280     0.6680 C.2   1 <1>   0.4490 
 25 H        2.0850    -0.0080     1.7460 H     1 <1>   0.0600 
 26 O        1.1890     0.9430     0.1940 O.2   1 <1>  -0.5700 
@<TRIPOS>BOND
  1   1   2  1   
  2   2   3  1   
  3   3   4  2   
  4   3   5  1   
  5   5   6  1   
  6   5   7  1   
  7   5  10  1   
  8   7   8  1   
  9   7   9  1   
 10  10  11  1   
 11  10  12  1   
 12  12  13  1   
 13  12  14  1   
 14  12  15  1   
 15  15  16  1   
 16  15  17  1   
 17  15  21  1   
 18  17  18  2   
 19  17  19  1   
 20  19  20  1   
 21  21  22  1   
 22  21  23  1   
 23  21  24  1   
 24  24  25  1   
 25  24  26  2   
@<TRIPOS>SUBSTRUCTURE
  1 ****  12 GROUP 4 **** **** 0

# MOE 2022.02 (io_trps.svl 2020.11)

@<TRIPOS>MOLECULE
UNP135
28 29 1 0 0 
SMALL
USER_CHARGES


@<TRIPOS>ATOM
  1 H        8.6120    -4.5360     0.6680 H     1 <1>   0.4000 
  2 N        8.7740    -3.5470     0.8640 N.2   1 <1>  -0.8500 
  3 C        8.1620    -2.8430    -0.0140 C.2   1 <1>   0.5500 
  4 N        7.3900    -3.2950    -1.0610 N.pl3 1 <1>  -0.5500 
  5 H        7.2070    -4.2580    -1.2910 H     1 <1>   0.4000 
  6 C        6.8740    -2.2420    -1.7780 C.2   1 <1>  -0.0500 
  7 H        6.2270    -2.4030    -2.6270 H     1 <1>   0.1500 
  8 C        7.2900    -1.0880    -1.2150 C.2   1 <1>   0.2010 
  9 S        6.8080     0.4500    -1.8290 S.3   1 <1>  -0.1010 
 10 S        5.7050     1.1250    -0.2250 S.3   1 <1>  -0.1010 
 11 C        4.2390     0.2680    -0.5230 C.2   1 <1>   0.2010 
 12 C        3.2960     0.7070    -1.3840 C.2   1 <1>  -0.0500 
 13 H        3.2800     1.5960    -1.9970 H     1 <1>   0.1500 
 14 N        2.2590    -0.1960    -1.4010 N.pl3 1 <1>  -0.5500 
 15 H        1.4400    -0.0830    -1.9730 H     1 <1>   0.4000 
 16 C        2.5090    -1.2450    -0.5440 C.2   1 <1>   0.5500 
 17 N        1.7660    -2.2650    -0.3200 N.2   1 <1>  -0.8500 
 18 H        0.9200    -2.1900    -0.8860 H     1 <1>   0.4000 
 19 N        3.7480    -0.9390     0.0120 N.pl3 1 <1>  -0.5190 
 20 C        4.3890    -1.7820     0.9910 C.3   1 <1>   0.3690 
 21 H        3.7130    -1.9750     1.8310 H     1 <1>   0.0000 
 22 H        4.6640    -2.7440     0.5450 H     1 <1>   0.0000 
 23 H        5.2960    -1.3290     1.4030 H     1 <1>   0.0000 
 24 N        8.1080    -1.4560    -0.1280 N.pl3 1 <1>  -0.5190 
 25 C        8.7930    -0.5670     0.7760 C.3   1 <1>   0.3690 
 26 H        9.7380    -1.0020     1.1200 H     1 <1>   0.0000 
 27 H        9.0390     0.3860     0.2970 H     1 <1>   0.0000 
 28 H        8.1710    -0.3650     1.6530 H     1 <1>   0.0000 
@<TRIPOS>BOND
  1   1   2  1   
  2   2   3  2   
  3   3   4  1   
  4   3  24  1   
  5   4   5  1   
  6   4   6  1   
  7   6   7  1   
  8   6   8  2   
  9   8   9  1   
 10   8  24  1   
 11   9  10  1   
 12  10  11  1   
 13  11  12  2   
 14  11  19  1   
 15  12  13  1   
 16  12  14  1   
 17  14  15  1   
 18  14  16  1   
 19  16  17  2   
 20  16  19  1   
 21  17  18  1   
 22  19  20  1   
 23  20  21  1   
 24  20  22  1   
 25  20  23  1   
 26  24  25  1   
 27  25  26  1   
 28  25  27  1   
 29  25  28  1   
@<TRIPOS>SUBSTRUCTURE
  1 ****   8 GROUP 4 **** **** 0

# MOE 2022.02 (io_trps.svl 2020.11)

@<TRIPOS>MOLECULE
UNP136
13 12 1 0 0 
SMALL
USER_CHARGES


@<TRIPOS>ATOM
  1 H        4.3750     0.0770    -0.5210 H     1 <1>   0.0600 
  2 C        3.8370    -0.5640     0.1990 C.2   1 <1>   0.4490 
  3 O        4.2250    -0.6790     1.3580 O.2   1 <1>  -0.5700 
  4 C        2.5720    -1.1940    -0.3000 C.3   1 <1>   0.0610 
  5 H        2.4750    -2.1740     0.1850 H     1 <1>   0.0000 
  6 H        2.6750    -1.3830    -1.3750 H     1 <1>   0.0000 
  7 C        1.3720    -0.3060     0.0210 C.3   1 <1>   0.4700 
  8 H        1.3680    -0.0540     1.0890 H     1 <1>   0.0000 
  9 C        0.1240    -1.0490    -0.2820 C.1   1 <1>   0.3570 
 10 N       -0.8600    -1.6230    -0.5090 N.1   1 <1>  -0.5570 
 11 N        1.4470     0.9610    -0.7370 N.3   1 <1>  -0.9900 
 12 H        2.1040     1.5940    -0.2780 H     1 <1>   0.3600 
 13 H        0.5420     1.4360    -0.6760 H     1 <1>   0.3600 
@<TRIPOS>BOND
  1   1   2  1   
  2   2   3  2   
  3   2   4  1   
  4   4   5  1   
  5   4   6  1   
  6   4   7  1   
  7   7   8  1   
  8   7   9  1   
  9   7  11  1   
 10   9  10  3   
 11  11  12  1   
 12  11  13  1   
@<TRIPOS>SUBSTRUCTURE
  1 ****   7 GROUP 4 **** **** 0

# MOE 2022.02 (io_trps.svl 2020.11)

@<TRIPOS>MOLECULE
UNP137
17 17 1 0 0 
SMALL
USER_CHARGES


@<TRIPOS>ATOM
  1 H        5.9140    -1.3220     0.2380 H     1 <1>   0.0600 
  2 C        6.0020    -0.2870    -0.1360 C.2   1 <1>   0.4490 
  3 O        7.0350     0.0990    -0.6750 O.2   1 <1>  -0.5700 
  4 C        4.8000     0.5870     0.0710 C.3   1 <1>   0.0610 
  5 H        5.0370     1.6080    -0.2520 H     1 <1>   0.0000 
  6 H        4.5880     0.6170     1.1450 H     1 <1>   0.0000 
  7 C        3.6260     0.0240    -0.7150 C.3   1 <1>   0.1810 
  8 H        3.8610     0.0230    -1.7870 H     1 <1>   0.0000 
  9 H        3.4560    -1.0250    -0.4400 H     1 <1>   0.0000 
 10 C        2.3780     0.7920    -0.4720 C.2   1 <1>   0.0460 
 11 N        1.6910     0.6470     0.7100 N.2   1 <1>  -0.5650 
 12 C        0.6550     1.4470     0.6140 C.2   1 <1>   0.0370 
 13 H       -0.1100     1.5890     1.3650 H     1 <1>   0.1500 
 14 N        0.6410     2.1070    -0.5820 N.pl3 1 <1>   0.0330 
 15 H       -0.0560     2.7730    -0.8830 H     1 <1>   0.2700 
 16 C        1.7390     1.7000    -1.2880 C.2   1 <1>  -0.3020 
 17 H        1.9630     2.0780    -2.2760 H     1 <1>   0.1500 
@<TRIPOS>BOND
  1   1   2  1   
  2   2   3  2   
  3   2   4  1   
  4   4   5  1   
  5   4   6  1   
  6   4   7  1   
  7   7   8  1   
  8   7   9  1   
  9   7  10  1   
 10  10  11  1   
 11  10  16  2   
 12  11  12  2   
 13  12  13  1   
 14  12  14  1   
 15  14  15  1   
 16  14  16  1   
 17  16  17  1   
@<TRIPOS>SUBSTRUCTURE
  1 ****  10 GROUP 4 **** **** 0

# MOE 2022.02 (io_trps.svl 2020.11)

@<TRIPOS>MOLECULE
UNP138
7 6 1 0 0 
SMALL
USER_CHARGES


@<TRIPOS>ATOM
  1 H       -0.7110    -0.2870    -0.7200 H     1 <1>   0.4000 
  2 N        0.2170    -0.6700    -0.4980 N.2   1 <1>  -0.4000 
  3 N        1.0760     0.0470     0.0520 N.2   1 <1>  -0.2460 
  4 C        2.3270    -0.6770     0.2830 C.3   1 <1>   0.2460 
  5 H        2.1660    -1.5370     0.9420 H     1 <1>   0.0000 
  6 H        2.7610    -1.0210    -0.6610 H     1 <1>   0.0000 
  7 H        3.0470    -0.0090     0.7650 H     1 <1>   0.0000 
@<TRIPOS>BOND
  1   1   2  1   
  2   2   3  2   
  3   3   4  1   
  4   4   5  1   
  5   4   6  1   
  6   4   7  1   
@<TRIPOS>SUBSTRUCTURE
  1 ****   3 GROUP 4 **** **** 0

# MOE 2022.02 (io_trps.svl 2020.11)

@<TRIPOS>MOLECULE
UNP139
21 20 1 0 0 
SMALL
USER_CHARGES


@<TRIPOS>ATOM
  1 H        0.2730    -0.5030     0.0630 H     1 <1>   0.0600 
  2 C        0.3040    -1.6080     0.0440 C.2   1 <1>   0.4400 
  3 N       -0.7540    -2.3490     0.0240 N.2   1 <1>  -0.5030 
  4 N       -1.9100    -1.6430     0.0150 N.pl3 1 <1>  -0.5280 
  5 H       -1.9270    -0.9740    -0.7330 H     1 <1>   0.3110 
  6 C       -3.1330    -2.4470    -0.0170 C.3   1 <1>   0.2700 
  7 H       -3.1750    -3.0200    -0.9510 H     1 <1>   0.0000 
  8 H       -3.1250    -3.1600     0.8150 H     1 <1>   0.0000 
  9 C       -4.3590    -1.5410     0.0980 C.3   1 <1>   0.0000 
 10 H       -4.3050    -0.9600     1.0280 H     1 <1>   0.0000 
 11 H       -4.3710    -0.8220    -0.7310 H     1 <1>   0.0000 
 12 C       -5.6520    -2.3570     0.0820 C.3   1 <1>   0.0000 
 13 H       -5.7150    -2.9380    -0.8450 H     1 <1>   0.0000 
 14 H       -5.6510    -3.0710     0.9140 H     1 <1>   0.0000 
 15 C       -6.8760    -1.4620     0.1950 C.3   1 <1>   0.0000 
 16 H       -6.8590    -0.8900     1.1280 H     1 <1>   0.0000 
 17 H       -6.9240    -0.7560    -0.6400 H     1 <1>   0.0000 
 18 H       -7.7890    -2.0660     0.1840 H     1 <1>   0.0000 
 19 N        1.5640    -2.1010     0.0460 N.pl3 1 <1>  -0.8500 
 20 H        1.6840    -3.1050     0.0330 H     1 <1>   0.4000 
 21 H        2.3800    -1.5080     0.0640 H     1 <1>   0.4000 
@<TRIPOS>BOND
  1   1   2  1   
  2   2   3  2   
  3   2  19  1   
  4   3   4  1   
  5   4   5  1   
  6   4   6  1   
  7   6   7  1   
  8   6   8  1   
  9   6   9  1   
 10   9  10  1   
 11   9  11  1   
 12   9  12  1   
 13  12  13  1   
 14  12  14  1   
 15  12  15  1   
 16  15  16  1   
 17  15  17  1   
 18  15  18  1   
 19  19  20  1   
 20  19  21  1   
@<TRIPOS>SUBSTRUCTURE
  1 ****   6 GROUP 4 **** **** 0

# MOE 2022.02 (io_trps.svl 2020.11)

@<TRIPOS>MOLECULE
UNP140
5 4 1 0 0 
SMALL
USER_CHARGES


@<TRIPOS>ATOM
  1 H        0.3380     1.4630    -0.0080 H     1 <1>   0.0600 
  2 C        0.3100     0.3620    -0.0060 C.2   1 <1>   0.6150 
  3 O       -0.7600    -0.2400    -0.0090 O.2   1 <1>  -0.5700 
  4 C        1.5690    -0.3530     0.0010 C.1   1 <1>   0.4520 
  5 N        2.5990    -0.8910     0.0070 N.1   1 <1>  -0.5570 
@<TRIPOS>BOND
  1   1   2  1   
  2   2   3  2   
  3   2   4  1   
  4   4   5  3   
@<TRIPOS>SUBSTRUCTURE
  1 ****   4 GROUP 4 **** **** 0

# MOE 2022.02 (io_trps.svl 2020.11)

@<TRIPOS>MOLECULE
UNP141
8 7 1 0 0 
SMALL
USER_CHARGES


@<TRIPOS>ATOM
  1 H        3.2740     0.7770     0.8050 H     1 <1>   0.0000 
  2 C        3.0600    -0.0920     0.1720 C.3   1 <1>   0.0000 
  3 H        3.1560    -0.9840     0.8030 H     1 <1>   0.0000 
  4 H        3.8520    -0.1440    -0.5850 H     1 <1>   0.0000 
  5 C        1.6800     0.0010    -0.4640 C.3   1 <1>   0.6900 
  6 BR       1.6130     1.6240    -1.5650 Br    1 <1>  -0.2300 
  7 BR       0.3420     0.0870     0.9680 Br    1 <1>  -0.2300 
  8 BR       1.3990    -1.5930    -1.5730 Br    1 <1>  -0.2300 
@<TRIPOS>BOND
  1   1   2  1   
  2   2   3  1   
  3   2   4  1   
  4   2   5  1   
  5   5   6  1   
  6   5   7  1   
  7   5   8  1   
@<TRIPOS>SUBSTRUCTURE
  1 ****   5 GROUP 4 **** **** 0

# MOE 2022.02 (io_trps.svl 2020.11)

@<TRIPOS>MOLECULE
UNP142
17 18 1 0 0 
SMALL
USER_CHARGES


@<TRIPOS>ATOM
  1 H        3.5020    -2.1560    -0.7200 H     1 <1>   0.0600 
  2 C        3.5180    -1.0600    -0.5910 C.2   1 <1>   0.4490 
  3 O        4.2290    -0.3570    -1.3070 O.2   1 <1>  -0.5700 
  4 C        2.6620    -0.5340     0.5530 C.3   1 <1>   0.4260 
  5 H        3.1090    -0.8810     1.4890 H     1 <1>   0.0000 
  6 N        2.6150     0.9480     0.5490 N.3   1 <1>  -0.9000 
  7 H        3.4400     1.2950     0.0520 H     1 <1>   0.3600 
  8 C        1.4060     1.3840    -0.1610 C.3   1 <1>   0.3650 
  9 H        1.0380     2.3240     0.2590 H     1 <1>   0.0000 
 10 H        1.6070     1.5270    -1.2280 H     1 <1>   0.0000 
 11 C        0.4430     0.2630     0.0580 C.3   1 <1>  -0.1950 
 12 H       -0.4340     0.5330     0.6280 H     1 <1>   0.1000 
 13 C        0.4290    -0.9520    -0.8280 C.3   1 <1>  -0.2000 
 14 H        0.9470    -0.9000    -1.7790 H     1 <1>   0.1000 
 15 H       -0.4810    -1.5420    -0.8560 H     1 <1>   0.1000 
 16 C        1.2220    -0.9410     0.4590 C.3   1 <1>  -0.1950 
 17 H        0.8750    -1.5190     1.3040 H     1 <1>   0.1000 
@<TRIPOS>BOND
  1   1   2  1   
  2   2   3  2   
  3   2   4  1   
  4   4   5  1   
  5   4   6  1   
  6   4  16  1   
  7   6   7  1   
  8   6   8  1   
  9   8   9  1   
 10   8  10  1   
 11   8  11  1   
 12  11  12  1   
 13  11  13  1   
 14  11  16  1   
 15  13  14  1   
 16  13  15  1   
 17  13  16  1   
 18  16  17  1   
@<TRIPOS>SUBSTRUCTURE
  1 ****   4 GROUP 4 **** **** 0

# MOE 2022.02 (io_trps.svl 2020.11)

@<TRIPOS>MOLECULE
UNP143
13 13 1 0 0 
SMALL
USER_CHARGES


@<TRIPOS>ATOM
  1 H        2.8320     1.7650     0.3630 H     1 <1>   0.0600 
  2 C        2.2690     0.8760     0.6910 C.2   1 <1>   0.5100 
  3 O        2.7180     0.1140     1.5420 O.2   1 <1>  -0.5700 
  4 C        0.9390     0.6450     0.0280 C.3   1 <1>   0.1580 
  5 N        0.4230     1.8430    -0.6630 N.3   1 <1>  -0.8780 
  6 H        0.0420     2.5020     0.0180 H     1 <1>   0.3600 
  7 H       -0.3600     1.6010    -1.2710 H     1 <1>   0.3600 
  8 C        0.6630    -0.7100    -0.5800 C.3   1 <1>  -0.2000 
  9 H        0.1020    -0.7660    -1.5050 H     1 <1>   0.1000 
 10 H        1.4220    -1.4800    -0.4830 H     1 <1>   0.1000 
 11 C       -0.0630    -0.2900     0.6650 C.3   1 <1>  -0.2000 
 12 H       -1.1200    -0.0640     0.5840 H     1 <1>   0.1000 
 13 H        0.2090    -0.7790     1.5950 H     1 <1>   0.1000 
@<TRIPOS>BOND
  1   1   2  1   
  2   2   3  2   
  3   2   4  1   
  4   4   5  1   
  5   4   8  1   
  6   4  11  1   
  7   5   6  1   
  8   5   7  1   
  9   8   9  1   
 10   8  10  1   
 11   8  11  1   
 12  11  12  1   
 13  11  13  1   
@<TRIPOS>SUBSTRUCTURE
  1 ****   4 GROUP 4 **** **** 0

# MOE 2022.02 (io_trps.svl 2020.11)

@<TRIPOS>MOLECULE
UNP144
27 28 1 0 0 
SMALL
USER_CHARGES


@<TRIPOS>ATOM
  1 H        2.0830     4.3120     0.1740 H     1 <1>   0.1500 
  2 C        1.1990     3.6820     0.2210 C.ar  1 <1>   0.1600 
  3 N        0.0350     4.3870     0.3270 N.ar  1 <1>  -0.6200 
  4 C       -1.1120     3.6770     0.4110 C.ar  1 <1>   0.1600 
  5 H       -2.0180     4.2640     0.5160 H     1 <1>   0.1500 
  6 C       -1.1270     2.3000     0.3730 C.ar  1 <1>  -0.1440 
  7 C        0.0830     1.6020     0.2560 C.ar  1 <1>  -0.1440 
  8 C        1.2870     2.2920     0.1880 C.ar  1 <1>   0.0860 
  9 C        2.5910     1.5920     0.1100 C.2   1 <1>   0.6340 
 10 O        2.7350     0.3910     0.2680 O.2   1 <1>  -0.5700 
 11 O        3.5850     2.4750    -0.1630 O.3   1 <1>  -0.4300 
 12 C        4.8820     1.8820    -0.2580 C.3   1 <1>   0.2800 
 13 H        5.1660     1.4300     0.6980 H     1 <1>   0.0000 
 14 H        4.9080     1.1400    -1.0620 H     1 <1>   0.0000 
 15 H        5.5990     2.6730    -0.4930 H     1 <1>   0.0000 
 16 C       -0.1690     0.1240     0.2680 C.3   1 <1>   0.1440 
 17 H        0.4100    -0.4140    -0.4880 H     1 <1>   0.0000 
 18 H        0.0320    -0.2860     1.2640 H     1 <1>   0.0000 
 19 C       -1.6670     0.0660    -0.0650 C.3   1 <1>   0.0000 
 20 H       -2.1430    -0.8340     0.3380 H     1 <1>   0.0000 
 21 H       -1.7870     0.0330    -1.1570 H     1 <1>   0.0000 
 22 C       -2.2880     1.3580     0.5000 C.3   1 <1>   0.1440 
 23 H       -2.5160     1.2240     1.5650 H     1 <1>   0.0000 
 24 C       -3.5430     1.7720    -0.2520 C.3   1 <1>   0.0000 
 25 H       -3.9680     2.6890     0.1700 H     1 <1>   0.0000 
 26 H       -3.3370     1.9610    -1.3110 H     1 <1>   0.0000 
 27 H       -4.3060     0.9880    -0.1880 H     1 <1>   0.0000 
@<TRIPOS>BOND
  1   1   2  1   
  2   2   3  ar  
  3   2   8  ar  
  4   3   4  ar  
  5   4   5  1   
  6   4   6  ar  
  7   6   7  ar  
  8   6  22  1   
  9   7   8  ar  
 10   7  16  1   
 11   8   9  1   
 12   9  10  2   
 13   9  11  1   
 14  11  12  1   
 15  12  13  1   
 16  12  14  1   
 17  12  15  1   
 18  16  17  1   
 19  16  18  1   
 20  16  19  1   
 21  19  20  1   
 22  19  21  1   
 23  19  22  1   
 24  22  23  1   
 25  22  24  1   
 26  24  25  1   
 27  24  26  1   
 28  24  27  1   
@<TRIPOS>SUBSTRUCTURE
  1 ****   7 GROUP 4 **** **** 0

# MOE 2022.02 (io_trps.svl 2020.11)

@<TRIPOS>MOLECULE
UNP145
19 19 1 0 0 
SMALL
USER_CHARGES


@<TRIPOS>ATOM
  1 H        8.1600    -3.4080    -0.2370 H     1 <1>   0.4000 
  2 N        7.8270    -2.6460     0.3660 N.2   1 <1>  -0.8500 
  3 C        7.0870    -1.8380    -0.3200 C.2   1 <1>   0.3290 
  4 H        6.9050    -2.0160    -1.3940 H     1 <1>   0.0600 
  5 C        6.4560    -0.6220     0.3020 C.3   1 <1>   0.2040 
  6 H        6.8450     0.2570    -0.2230 H     1 <1>   0.0000 
  7 H        6.7580    -0.5350     1.3520 H     1 <1>   0.0000 
  8 C        4.9520    -0.6700     0.2040 C.ar  1 <1>  -0.1440 
  9 C        4.2230    -1.5590     1.0080 C.ar  1 <1>  -0.1500 
 10 H        4.7390    -2.2120     1.7110 H     1 <1>   0.1500 
 11 C        2.8320    -1.6180     0.9160 C.ar  1 <1>  -0.1500 
 12 H        2.2720    -2.3070     1.5400 H     1 <1>   0.1500 
 13 C        2.1660    -0.7890     0.0210 C.ar  1 <1>   0.0820 
 14 O        0.8070    -0.8780    -0.0350 O.3   1 <1>  -0.5320 
 15 H        0.4810    -0.2330    -0.6840 H     1 <1>   0.4500 
 16 C        2.8690     0.0990    -0.7860 C.ar  1 <1>  -0.1500 
 17 H        2.3560     0.7490    -1.4870 H     1 <1>   0.1500 
 18 C        4.2630     0.1570    -0.6950 C.ar  1 <1>  -0.1500 
 19 H        4.8050     0.8540    -1.3300 H     1 <1>   0.1500 
@<TRIPOS>BOND
  1   1   2  1   
  2   2   3  2   
  3   3   4  1   
  4   3   5  1   
  5   5   6  1   
  6   5   7  1   
  7   5   8  1   
  8   8   9  ar  
  9   8  18  ar  
 10   9  10  1   
 11   9  11  ar  
 12  11  12  1   
 13  11  13  ar  
 14  13  14  1   
 15  13  16  ar  
 16  14  15  1   
 17  16  17  1   
 18  16  18  ar  
 19  18  19  1   
@<TRIPOS>SUBSTRUCTURE
  1 ****   8 GROUP 4 **** **** 0

# MOE 2022.02 (io_trps.svl 2020.11)

@<TRIPOS>MOLECULE
UNP146
10 9 1 0 0 
SMALL
USER_CHARGES


@<TRIPOS>ATOM
  1 H       -0.5340    -0.2400    -0.0730 H     1 <1>   0.5000 
  2 O        0.4170    -0.0150    -0.0550 O.3   1 <1>  -0.6500 
  3 C        1.0250    -1.2150    -0.0400 C.2   1 <1>   0.8250 
  4 O        0.4010    -2.2620    -0.0510 O.2   1 <1>  -0.5700 
  5 C        2.4590    -1.1450    -0.0120 C.1   1 <1>  -0.1050 
  6 C        3.6600    -1.0870     0.0110 C.1   1 <1>  -0.2000 
  7 C        5.1200    -1.0160     0.0380 C.3   1 <1>   0.2000 
  8 H        5.5440    -1.9130     0.5000 H     1 <1>   0.0000 
  9 H        5.5250    -0.9320    -0.9750 H     1 <1>   0.0000 
 10 H        5.4570    -0.1470     0.6110 H     1 <1>   0.0000 
@<TRIPOS>BOND
  1   1   2  1   
  2   2   3  1   
  3   3   4  2   
  4   3   5  1   
  5   5   6  3   
  6   6   7  1   
  7   7   8  1   
  8   7   9  1   
  9   7  10  1   
@<TRIPOS>SUBSTRUCTURE
  1 ****   5 GROUP 4 **** **** 0

# MOE 2022.02 (io_trps.svl 2020.11)

@<TRIPOS>MOLECULE
UNP147
26 26 1 0 0 
SMALL
USER_CHARGES


@<TRIPOS>ATOM
  1 H        0.2260    -1.9250     0.2590 H     1 <1>   0.4000 
  2 O        0.4070    -1.1850    -0.3460 O.3   1 <1>  -0.6800 
  3 C        1.5800    -0.5280     0.1320 C.3   1 <1>   0.2800 
  4 H        1.3910    -0.2380     1.1730 H     1 <1>   0.0000 
  5 C        1.8230     0.7230    -0.7000 C.3   1 <1>   0.0000 
  6 H        1.9630     0.4310    -1.7510 H     1 <1>   0.0000 
  7 H        0.9270     1.3570    -0.7110 H     1 <1>   0.0000 
  8 C        3.0580     1.4970    -0.2190 C.3   1 <1>   0.2700 
  9 H        3.4860     2.0130    -1.0870 H     1 <1>   0.0000 
 10 N        2.6860     2.5220     0.7590 N.3   1 <1>  -0.9900 
 11 H        3.5100     3.0610     1.0250 H     1 <1>   0.3600 
 12 H        2.0350     3.1830     0.3360 H     1 <1>   0.3600 
 13 C        4.1380     0.5860     0.3970 C.3   1 <1>   0.0000 
 14 H        5.1110     1.0740     0.2690 H     1 <1>   0.0000 
 15 H        3.9880     0.4820     1.4810 H     1 <1>   0.0000 
 16 C        4.1120    -0.8090    -0.2420 C.3   1 <1>   0.2700 
 17 H        4.1890    -0.7030    -1.3330 H     1 <1>   0.0000 
 18 N        5.1990    -1.6860     0.2220 N.3   1 <1>  -0.9000 
 19 H        5.0160    -2.6400    -0.0930 H     1 <1>   0.3600 
 20 C        6.5090    -1.2840    -0.2740 C.3   1 <1>   0.2700 
 21 H        6.5290    -1.2350    -1.3670 H     1 <1>   0.0000 
 22 H        7.2540    -2.0220     0.0400 H     1 <1>   0.0000 
 23 H        6.8240    -0.3210     0.1380 H     1 <1>   0.0000 
 24 C        2.7660    -1.4980     0.0680 C.3   1 <1>   0.0000 
 25 H        2.5850    -2.2840    -0.6780 H     1 <1>   0.0000 
 26 H        2.8130    -2.0230     1.0330 H     1 <1>   0.0000 
@<TRIPOS>BOND
  1   1   2  1   
  2   2   3  1   
  3   3   4  1   
  4   3   5  1   
  5   3  24  1   
  6   5   6  1   
  7   5   7  1   
  8   5   8  1   
  9   8   9  1   
 10   8  10  1   
 11   8  13  1   
 12  10  11  1   
 13  10  12  1   
 14  13  14  1   
 15  13  15  1   
 16  13  16  1   
 17  16  17  1   
 18  16  18  1   
 19  16  24  1   
 20  18  19  1   
 21  18  20  1   
 22  20  21  1   
 23  20  22  1   
 24  20  23  1   
 25  24  25  1   
 26  24  26  1   
@<TRIPOS>SUBSTRUCTURE
  1 ****  16 GROUP 4 **** **** 0

# MOE 2022.02 (io_trps.svl 2020.11)

@<TRIPOS>MOLECULE
UNP148
16 16 1 0 0 
SMALL
USER_CHARGES


@<TRIPOS>ATOM
  1 H       -0.9700     1.1100     0.5640 H     1 <1>   0.1500 
  2 C       -1.0410     0.0390     0.3910 C.ar  1 <1>   0.1600 
  3 N        0.1390    -0.6130     0.3350 N.ar  1 <1>  -0.6200 
  4 C        0.0870    -1.9500     0.1200 C.ar  1 <1>   0.3830 
  5 C        1.3520    -2.6280     0.0620 C.1   1 <1>   0.4840 
  6 N        2.3560    -3.2120     0.0100 N.1   1 <1>  -0.5570 
  7 C       -1.0990    -2.6510    -0.0400 C.ar  1 <1>  -0.1500 
  8 H       -1.0980    -3.7230    -0.2110 H     1 <1>   0.1500 
  9 C       -2.3000    -1.9500     0.0220 C.ar  1 <1>   0.0820 
 10 O       -3.4190    -2.7170    -0.1460 O.3   1 <1>  -0.3630 
 11 C       -4.6750    -2.0490    -0.0920 C.3   1 <1>   0.2800 
 12 H       -4.7610    -1.3090    -0.8950 H     1 <1>   0.0000 
 13 H       -4.8350    -1.5900     0.8890 H     1 <1>   0.0000 
 14 H       -5.4590    -2.7970    -0.2430 H     1 <1>   0.0000 
 15 C       -2.2740    -0.5770     0.2420 C.ar  1 <1>  -0.1500 
 16 H       -3.1710     0.0270     0.3010 H     1 <1>   0.1500 
@<TRIPOS>BOND
  1   1   2  1   
  2   2   3  ar  
  3   2  15  ar  
  4   3   4  ar  
  5   4   5  1   
  6   4   7  ar  
  7   5   6  3   
  8   7   8  1   
  9   7   9  ar  
 10   9  10  1   
 11   9  15  ar  
 12  10  11  1   
 13  11  12  1   
 14  11  13  1   
 15  11  14  1   
 16  15  16  1   
@<TRIPOS>SUBSTRUCTURE
  1 ****   7 GROUP 4 **** **** 0

# MOE 2022.02 (io_trps.svl 2020.11)

@<TRIPOS>MOLECULE
UNP149
24 23 1 0 0 
SMALL
USER_CHARGES


@<TRIPOS>ATOM
  1 H        0.5480     0.0640    -1.8910 H     1 <1>   0.0600 
  2 C        0.3540     0.9150    -1.2150 C.2   1 <1>   0.4490 
  3 O       -0.3060     1.8760    -1.6020 O.2   1 <1>  -0.5700 
  4 C        0.8700     0.7470     0.2120 C.3   1 <1>   0.3310 
  5 H        0.2220    -0.0050     0.6770 H     1 <1>   0.0000 
  6 N        0.6980     1.9970     0.9770 N.3   1 <1>  -0.9900 
  7 H        1.4490     2.6500     0.7110 H     1 <1>   0.3600 
  8 H       -0.1540     2.4590     0.6430 H     1 <1>   0.3600 
  9 C        2.3050     0.2130     0.2370 C.3   1 <1>   0.1940 
 10 H        2.6650     0.1430     1.2700 H     1 <1>   0.0000 
 11 H        2.3390    -0.7880    -0.2070 H     1 <1>   0.0000 
 12 S        3.4670     1.2490    -0.7180 S.o   1 <1>   0.2500 
 13 O        3.4660     2.6240    -0.1180 O.2   1 <1>  -0.5000 
 14 C        4.9800     0.4570    -0.1790 C.2   1 <1>  -0.0940 
 15 H        5.0010    -0.5910     0.1040 H     1 <1>   0.1500 
 16 C        6.1100     1.1790    -0.1510 C.2   1 <1>  -0.2880 
 17 H        6.0900     2.2330    -0.4300 H     1 <1>   0.1500 
 18 C        7.4410     0.6370     0.2810 C.3   1 <1>   0.1380 
 19 H        7.8010     1.2260     1.1320 H     1 <1>   0.0000 
 20 H        7.3500    -0.4000     0.6270 H     1 <1>   0.0000 
 21 C        8.4590     0.7000    -0.8460 C.3   1 <1>   0.0000 
 22 H        8.1370     0.1000    -1.7040 H     1 <1>   0.0000 
 23 H        9.4250     0.3120    -0.5060 H     1 <1>   0.0000 
 24 H        8.6110     1.7300    -1.1870 H     1 <1>   0.0000 
@<TRIPOS>BOND
  1   1   2  1   
  2   2   3  2   
  3   2   4  1   
  4   4   5  1   
  5   4   6  1   
  6   4   9  1   
  7   6   7  1   
  8   6   8  1   
  9   9  10  1   
 10   9  11  1   
 11   9  12  1   
 12  12  13  2   
 13  12  14  1   
 14  14  15  1   
 15  14  16  2   
 16  16  17  1   
 17  16  18  1   
 18  18  19  1   
 19  18  20  1   
 20  18  21  1   
 21  21  22  1   
 22  21  23  1   
 23  21  24  1   
@<TRIPOS>SUBSTRUCTURE
  1 ****  12 GROUP 4 **** **** 0

# MOE 2022.02 (io_trps.svl 2020.11)

@<TRIPOS>MOLECULE
UNP150
34 34 1 0 0 
SMALL
USER_CHARGES


@<TRIPOS>ATOM
  1 H        8.2240    -3.2730     2.5060 H     1 <1>   0.0600 
  2 C        8.4410    -3.2830     1.4240 C.2   1 <1>   0.4490 
  3 O        9.2410    -4.0830     0.9500 O.2   1 <1>  -0.5700 
  4 C        7.7150    -2.2520     0.6000 C.3   1 <1>   0.0610 
  5 H        8.0070    -1.2700     0.9840 H     1 <1>   0.0000 
  6 H        8.0510    -2.3320    -0.4390 H     1 <1>   0.0000 
  7 C        6.2070    -2.4740     0.7010 C.3   1 <1>   0.0000 
  8 H        5.9990    -3.5210     0.4490 H     1 <1>   0.0000 
  9 H        5.8970    -2.3460     1.7460 H     1 <1>   0.0000 
 10 C        5.3770    -1.5380    -0.2190 C.3   1 <1>   0.0000 
 11 H        5.8250    -1.5980    -1.2210 H     1 <1>   0.0000 
 12 C        5.5390    -0.0710     0.2120 C.3   1 <1>   0.0000 
 13 H        6.5900     0.2350     0.1770 H     1 <1>   0.0000 
 14 H        5.1840     0.1010     1.2320 H     1 <1>   0.0000 
 15 H        5.0100     0.6100    -0.4600 H     1 <1>   0.0000 
 16 C        3.8760    -2.0260    -0.3440 C.3   1 <1>   0.1220 
 17 C        2.9970    -0.9930    -1.1060 C.3   1 <1>   0.1380 
 18 H        2.9130    -0.0670    -0.5230 H     1 <1>   0.0000 
 19 H        3.4810    -0.7150    -2.0520 H     1 <1>   0.0000 
 20 C        1.6000    -1.4650    -1.4370 C.2   1 <1>  -0.2880 
 21 H        1.4890    -2.1340    -2.2890 H     1 <1>   0.1500 
 22 C        0.5050    -1.0780    -0.7720 C.2   1 <1>  -0.3000 
 23 H        0.5560    -0.3950     0.0720 H     1 <1>   0.1500 
 24 H       -0.4790    -1.4320    -1.0660 H     1 <1>   0.1500 
 25 C        3.2620    -2.2020     1.0390 C.2   1 <1>   0.5690 
 26 O        3.2360    -1.3070     1.8830 O.2   1 <1>  -0.5700 
 27 N        2.7110    -3.4170     1.3390 N.am  1 <1>  -0.4900 
 28 H        2.2810    -3.4910     2.2530 H     1 <1>   0.3700 
 29 C        2.6920    -4.5130     0.5400 C.2   1 <1>   0.5000 
 30 S        1.9830    -5.9300     1.0370 S.2   1 <1>  -0.3800 
 31 N        3.2870    -4.4100    -0.6740 N.am  1 <1>  -0.4900 
 32 H        3.2930    -5.2290    -1.2700 H     1 <1>   0.3700 
 33 C        3.8910    -3.2970    -1.1870 C.2   1 <1>   0.5690 
 34 O        4.4050    -3.3500    -2.3050 O.2   1 <1>  -0.5700 
@<TRIPOS>BOND
  1   1   2  1   
  2   2   3  2   
  3   2   4  1   
  4   4   5  1   
  5   4   6  1   
  6   4   7  1   
  7   7   8  1   
  8   7   9  1   
  9   7  10  1   
 10  10  11  1   
 11  10  12  1   
 12  10  16  1   
 13  12  13  1   
 14  12  14  1   
 15  12  15  1   
 16  16  17  1   
 17  16  25  1   
 18  16  33  1   
 19  17  18  1   
 20  17  19  1   
 21  17  20  1   
 22  20  21  1   
 23  20  22  2   
 24  22  23  1   
 25  22  24  1   
 26  25  26  2   
 27  25  27  am  
 28  27  28  1   
 29  27  29  am  
 30  29  30  2   
 31  29  31  am  
 32  31  32  1   
 33  31  33  am  
 34  33  34  2   
@<TRIPOS>SUBSTRUCTURE
  1 ****  16 GROUP 4 **** **** 0

# MOE 2022.02 (io_trps.svl 2020.11)

@<TRIPOS>MOLECULE
UNP151
24 24 1 0 0 
SMALL
USER_CHARGES


@<TRIPOS>ATOM
  1 H        5.6810     0.4490     1.5310 H     1 <1>   0.1500 
  2 C        5.0680    -0.3410     1.1060 C.2   1 <1>  -0.3000 
  3 H        5.2810    -1.3550     1.4340 H     1 <1>   0.1500 
  4 C        4.0990    -0.0780     0.2050 C.2   1 <1>  -0.2760 
  5 C        3.2740    -1.2150    -0.3570 C.3   1 <1>   0.1380 
  6 H        3.0060    -1.0350    -1.4030 H     1 <1>   0.0000 
  7 H        3.8980    -2.1190    -0.3810 H     1 <1>   0.0000 
  8 C        2.0590    -1.5020     0.5320 C.3   1 <1>   0.0000 
  9 H        2.1630    -1.0180     1.5120 H     1 <1>   0.0000 
 10 H        2.0320    -2.5800     0.7430 H     1 <1>   0.0000 
 11 C        0.7040    -1.1250    -0.0700 C.3   1 <1>   0.2700 
 12 H       -0.0450    -1.1470     0.7320 H     1 <1>   0.0000 
 13 H        0.4120    -1.9130    -0.7750 H     1 <1>   0.0000 
 14 N        0.6030     0.1430    -0.7810 N.3   1 <1>  -0.9000 
 15 H       -0.3820     0.3410    -0.9600 H     1 <1>   0.3600 
 16 C        1.2320     1.2900    -0.1360 C.3   1 <1>   0.2700 
 17 H        1.4130     1.1530     0.9360 H     1 <1>   0.0000 
 18 H        0.5220     2.1230    -0.2070 H     1 <1>   0.0000 
 19 C        2.4890     1.6910    -0.9130 C.3   1 <1>   0.0000 
 20 H        2.4630     1.2750    -1.9300 H     1 <1>   0.0000 
 21 H        2.4550     2.7810    -1.0530 H     1 <1>   0.0000 
 22 C        3.8180     1.3490    -0.2300 C.3   1 <1>   0.4280 
 23 H        3.9070     1.9980     0.6510 H     1 <1>   0.0000 
 24 CL       5.1530     1.8640    -1.3320 Cl    1 <1>  -0.2900 
@<TRIPOS>BOND
  1   1   2  1   
  2   2   3  1   
  3   2   4  2   
  4   4   5  1   
  5   4  22  1   
  6   5   6  1   
  7   5   7  1   
  8   5   8  1   
  9   8   9  1   
 10   8  10  1   
 11   8  11  1   
 12  11  12  1   
 13  11  13  1   
 14  11  14  1   
 15  14  15  1   
 16  14  16  1   
 17  16  17  1   
 18  16  18  1   
 19  16  19  1   
 20  19  20  1   
 21  19  21  1   
 22  19  22  1   
 23  22  23  1   
 24  22  24  1   
@<TRIPOS>SUBSTRUCTURE
  1 ****   4 GROUP 4 **** **** 0

# MOE 2022.02 (io_trps.svl 2020.11)

@<TRIPOS>MOLECULE
UNP152
16 15 1 0 0 
SMALL
USER_CHARGES


@<TRIPOS>ATOM
  1 H       -0.8340    -1.6570     0.4910 H     1 <1>   0.0000 
  2 C       -0.2170    -1.0370    -0.1660 C.3   1 <1>   0.0000 
  3 H       -0.7090    -0.9990    -1.1440 H     1 <1>   0.0000 
  4 H       -0.1990    -0.0250     0.2540 H     1 <1>   0.0000 
  5 C        1.1800    -1.6240    -0.2690 C.3   1 <1>   0.2300 
  6 H        1.1230    -2.6360    -0.6800 H     1 <1>   0.0000 
  7 H        1.6310    -1.6710     0.7280 H     1 <1>   0.0000 
  8 S        2.2080    -0.5840    -1.3540 S.3   1 <1>  -0.2300 
  9 S        3.9970    -1.6000    -1.3520 S.3   1 <1>  -0.2300 
 10 C        4.7930    -0.9620     0.1560 C.3   1 <1>   0.2300 
 11 H        4.8950     0.1260     0.0820 H     1 <1>   0.0000 
 12 H        4.1740    -1.2010     1.0260 H     1 <1>   0.0000 
 13 C        6.1650    -1.5910     0.3210 C.3   1 <1>   0.0000 
 14 H        6.1000    -2.6800     0.4170 H     1 <1>   0.0000 
 15 H        6.8210    -1.3540    -0.5240 H     1 <1>   0.0000 
 16 H        6.6440    -1.2070     1.2290 H     1 <1>   0.0000 
@<TRIPOS>BOND
  1   1   2  1   
  2   2   3  1   
  3   2   4  1   
  4   2   5  1   
  5   5   6  1   
  6   5   7  1   
  7   5   8  1   
  8   8   9  1   
  9   9  10  1   
 10  10  11  1   
 11  10  12  1   
 12  10  13  1   
 13  13  14  1   
 14  13  15  1   
 15  13  16  1   
@<TRIPOS>SUBSTRUCTURE
  1 ****   8 GROUP 4 **** **** 0

# MOE 2022.02 (io_trps.svl 2020.11)

@<TRIPOS>MOLECULE
UNP153
16 16 1 0 0 
SMALL
USER_CHARGES


@<TRIPOS>ATOM
  1 H       -3.6590     3.2830     0.2490 H     1 <1>   0.1500 
  2 C       -2.7030     2.7690     0.2160 C.ar  1 <1>  -0.1500 
  3 C       -2.5720     1.5650    -0.4710 C.ar  1 <1>   0.1110 
  4 BR      -4.0730     0.8240    -1.3520 Br    1 <1>  -0.1110 
  5 C       -1.3460     0.8990    -0.5200 C.ar  1 <1>  -0.1500 
  6 H       -1.2630    -0.0380    -1.0690 H     1 <1>   0.1500 
  7 C       -0.2250     1.4350     0.1330 C.ar  1 <1>  -0.1440 
  8 C        1.1100     0.7300     0.0700 C.3   1 <1>   0.3440 
  9 H        1.6620     0.9130     1.0000 H     1 <1>   0.0000 
 10 H        0.9460    -0.3540     0.0310 H     1 <1>   0.0000 
 11 C        1.9190     1.1540    -1.0820 C.1   1 <1>   0.3570 
 12 N        2.5700     1.4790    -1.9870 N.1   1 <1>  -0.5570 
 13 C       -0.3560     2.6530     0.8180 C.ar  1 <1>  -0.1500 
 14 H        0.5030     3.0950     1.3190 H     1 <1>   0.1500 
 15 C       -1.5900     3.3070     0.8570 C.ar  1 <1>   0.1110 
 16 BR      -1.7490     4.9450     1.7890 Br    1 <1>  -0.1110 
@<TRIPOS>BOND
  1   1   2  1   
  2   2   3  ar  
  3   2  15  ar  
  4   3   4  1   
  5   3   5  ar  
  6   5   6  1   
  7   5   7  ar  
  8   7   8  1   
  9   7  13  ar  
 10   8   9  1   
 11   8  10  1   
 12   8  11  1   
 13  11  12  3   
 14  13  14  1   
 15  13  15  ar  
 16  15  16  1   
@<TRIPOS>SUBSTRUCTURE
  1 ****   7 GROUP 4 **** **** 0

# MOE 2022.02 (io_trps.svl 2020.11)

@<TRIPOS>MOLECULE
UNP154
10 9 1 0 0 
SMALL
USER_CHARGES


@<TRIPOS>ATOM
  1 H        5.7640     0.5060    -1.0870 H     1 <1>   0.0000 
  2 C        5.5100    -0.0800    -0.1980 C.3   1 <1>   0.2000 
  3 H        5.9080    -1.0900    -0.3310 H     1 <1>   0.0000 
  4 H        6.0130     0.3730     0.6620 H     1 <1>   0.0000 
  5 C        4.0610    -0.1130     0.0060 C.1   1 <1>  -0.2000 
  6 C        2.8720    -0.1340     0.1750 C.1   1 <1>  -0.2000 
  7 C        1.4240    -0.1670     0.3790 C.3   1 <1>   0.4900 
  8 H        0.8930    -0.3660    -0.5560 H     1 <1>   0.0000 
  9 H        1.1410    -0.9280     1.1120 H     1 <1>   0.0000 
 10 CL       0.8890     1.4110     0.9900 Cl    1 <1>  -0.2900 
@<TRIPOS>BOND
  1   1   2  1   
  2   2   3  1   
  3   2   4  1   
  4   2   5  1   
  5   5   6  3   
  6   6   7  1   
  7   7   8  1   
  8   7   9  1   
  9   7  10  1   
@<TRIPOS>SUBSTRUCTURE
  1 ****   6 GROUP 4 **** **** 0

# MOE 2022.02 (io_trps.svl 2020.11)

@<TRIPOS>MOLECULE
UNP155
3 2 1 0 0 
SMALL
USER_CHARGES


@<TRIPOS>ATOM
  1 H       -0.6700    -0.9000    -0.0290 H     1 <1>   0.1770 
  2 C        0.2890    -0.4360     0.0010 C.1   1 <1>   0.3800 
  3 N        1.3320     0.0690     0.0340 N.1   1 <1>  -0.5570 
@<TRIPOS>BOND
  1   1   2  1   
  2   2   3  3   
@<TRIPOS>SUBSTRUCTURE
  1 ****   2 GROUP 4 **** **** 0

# MOE 2022.02 (io_trps.svl 2020.11)

@<TRIPOS>MOLECULE
UNP156
29 29 1 0 0 
SMALL
USER_CHARGES


@<TRIPOS>ATOM
  1 H       -8.9100    -1.4680     0.3960 H     1 <1>   0.1500 
  2 C       -8.0320    -2.0950     0.2640 C.ar  1 <1>  -0.1500 
  3 C       -6.7590    -1.5250     0.3550 C.ar  1 <1>  -0.1500 
  4 H       -6.6700    -0.4580     0.5570 H     1 <1>   0.1500 
  5 C       -5.6090    -2.3130     0.1890 C.ar  1 <1>   0.0860 
  6 C       -4.2720    -1.6480     0.2940 C.2   1 <1>   0.4230 
  7 O       -4.2220    -0.4460     0.5490 O.2   1 <1>  -0.5700 
  8 C       -3.0260    -2.4970     0.0770 C.3   1 <1>   0.3410 
  9 H       -2.9970    -3.2720     0.8510 H     1 <1>   0.0000 
 10 H       -3.0760    -2.9330    -0.9270 H     1 <1>   0.0000 
 11 O       -1.8460    -1.6980     0.1770 O.3   1 <1>  -0.4300 
 12 C       -0.6940    -2.3900    -0.0350 C.2   1 <1>   0.6590 
 13 O       -0.6390    -3.5860    -0.2840 O.2   1 <1>  -0.5700 
 14 C        0.4870    -1.4570     0.0860 C.3   1 <1>   0.0610 
 15 H        0.3510    -0.6400    -0.6320 H     1 <1>   0.0000 
 16 H        0.4930    -1.0440     1.1010 H     1 <1>   0.0000 
 17 C        1.8070    -2.1700    -0.1920 C.3   1 <1>   0.0000 
 18 H        1.7930    -2.6070    -1.1980 H     1 <1>   0.0000 
 19 H        1.9390    -3.0010     0.5120 H     1 <1>   0.0000 
 20 C        2.9880    -1.2200    -0.0730 C.3   1 <1>   0.0000 
 21 H        3.0510    -0.7950     0.9340 H     1 <1>   0.0000 
 22 H        3.9240    -1.7510    -0.2770 H     1 <1>   0.0000 
 23 H        2.9030    -0.3970    -0.7900 H     1 <1>   0.0000 
 24 C       -5.7510    -3.6830    -0.0700 C.ar  1 <1>  -0.1500 
 25 H       -4.8940    -4.3360    -0.2050 H     1 <1>   0.1500 
 26 C       -7.0260    -4.2530    -0.1610 C.ar  1 <1>  -0.1500 
 27 H       -7.1250    -5.3170    -0.3610 H     1 <1>   0.1500 
 28 C       -8.1590    -3.4580     0.0060 C.ar  1 <1>   0.1110 
 29 BR      -9.8780    -4.2340    -0.1180 Br    1 <1>  -0.1110 
@<TRIPOS>BOND
  1   1   2  1   
  2   2   3  ar  
  3   2  28  ar  
  4   3   4  1   
  5   3   5  ar  
  6   5   6  1   
  7   5  24  ar  
  8   6   7  2   
  9   6   8  1   
 10   8   9  1   
 11   8  10  1   
 12   8  11  1   
 13  11  12  1   
 14  12  13  2   
 15  12  14  1   
 16  14  15  1   
 17  14  16  1   
 18  14  17  1   
 19  17  18  1   
 20  17  19  1   
 21  17  20  1   
 22  20  21  1   
 23  20  22  1   
 24  20  23  1   
 25  24  25  1   
 26  24  26  ar  
 27  26  27  1   
 28  26  28  ar  
 29  28  29  1   
@<TRIPOS>SUBSTRUCTURE
  1 ****   8 GROUP 4 **** **** 0

# MOE 2022.02 (io_trps.svl 2020.11)

@<TRIPOS>MOLECULE
UNP157
12 12 1 0 0 
SMALL
USER_CHARGES


@<TRIPOS>ATOM
  1 H       -1.6190     3.8040     0.2340 H     1 <1>   0.3700 
  2 N       -1.3930     2.8490    -0.0160 N.am  1 <1>  -0.3680 
  3 N       -0.1120     2.3950     0.0920 N.2   1 <1>  -0.5120 
  4 C       -0.0710     1.1530    -0.2830 C.2   1 <1>   0.7410 
  5 O        1.0690     0.4160    -0.2910 O.3   1 <1>  -0.4300 
  6 C        2.2540     1.0880     0.1450 C.3   1 <1>   0.2800 
  7 H        3.0830     0.3770     0.0930 H     1 <1>   0.0000 
  8 H        2.4810     1.9310    -0.5150 H     1 <1>   0.0000 
  9 H        2.1480     1.4200     1.1820 H     1 <1>   0.0000 
 10 S       -1.5850     0.4450    -0.7940 S.3   1 <1>  -0.2820 
 11 C       -2.3440     1.9780    -0.4700 C.2   1 <1>   0.7710 
 12 O       -3.5300     2.2130    -0.6300 O.2   1 <1>  -0.5700 
@<TRIPOS>BOND
  1   1   2  1   
  2   2   3  1   
  3   2  11  am  
  4   3   4  2   
  5   4   5  1   
  6   4  10  1   
  7   5   6  1   
  8   6   7  1   
  9   6   8  1   
 10   6   9  1   
 11  10  11  1   
 12  11  12  2   
@<TRIPOS>SUBSTRUCTURE
  1 ****   4 GROUP 4 **** **** 0

# MOE 2022.02 (io_trps.svl 2020.11)

@<TRIPOS>MOLECULE
UNP158
23 23 1 0 0 
SMALL
USER_CHARGES


@<TRIPOS>ATOM
  1 H       -4.9440     3.6950     1.1350 H     1 <1>   0.1500 
  2 C       -4.0560     3.1650     0.8050 C.ar  1 <1>  -0.1500 
  3 C       -3.3410     3.6070    -0.3050 C.ar  1 <1>   0.1110 
  4 BR      -3.9240     5.1440    -1.2410 Br    1 <1>  -0.1110 
  5 C       -2.1980     2.9300    -0.7340 C.ar  1 <1>  -0.1500 
  6 H       -1.6470     3.2880    -1.6020 H     1 <1>   0.1500 
  7 C       -1.7570     1.7880    -0.0500 C.ar  1 <1>  -0.1440 
  8 C       -0.5090     1.0650    -0.4970 C.3   1 <1>   0.1440 
  9 H       -0.4350     1.1140    -1.5920 H     1 <1>   0.0000 
 10 H       -0.5990    -0.0010    -0.2490 H     1 <1>   0.0000 
 11 C        0.7510     1.6570     0.1480 C.3   1 <1>   0.2700 
 12 H        0.6690     1.5980     1.2400 H     1 <1>   0.0000 
 13 H        0.8330     2.7180    -0.1210 H     1 <1>   0.0000 
 14 N        1.9440     0.9370    -0.3060 N.3   1 <1>  -0.9000 
 15 H        1.8720    -0.0460    -0.0430 H     1 <1>   0.3600 
 16 C        3.1500     1.5020     0.2870 C.3   1 <1>   0.2700 
 17 H        3.1300     1.4340     1.3790 H     1 <1>   0.0000 
 18 H        4.0240     0.9490    -0.0690 H     1 <1>   0.0000 
 19 H        3.2810     2.5490    -0.0050 H     1 <1>   0.0000 
 20 C       -2.4740     1.3460     1.0700 C.ar  1 <1>  -0.1500 
 21 H       -2.1410     0.4650     1.6150 H     1 <1>   0.1500 
 22 C       -3.6160     2.0330     1.4880 C.ar  1 <1>   0.1110 
 23 BR      -4.5730     1.4220     3.0000 Br    1 <1>  -0.1110 
@<TRIPOS>BOND
  1   1   2  1   
  2   2   3  ar  
  3   2  22  ar  
  4   3   4  1   
  5   3   5  ar  
  6   5   6  1   
  7   5   7  ar  
  8   7   8  1   
  9   7  20  ar  
 10   8   9  1   
 11   8  10  1   
 12   8  11  1   
 13  11  12  1   
 14  11  13  1   
 15  11  14  1   
 16  14  15  1   
 17  14  16  1   
 18  16  17  1   
 19  16  18  1   
 20  16  19  1   
 21  20  21  1   
 22  20  22  ar  
 23  22  23  1   
@<TRIPOS>SUBSTRUCTURE
  1 ****   7 GROUP 4 **** **** 0

# MOE 2022.02 (io_trps.svl 2020.11)

@<TRIPOS>MOLECULE
UNP159
10 9 1 0 0 
SMALL
USER_CHARGES


@<TRIPOS>ATOM
  1 H        3.1510     0.9810    -0.5380 H     1 <1>   0.4000 
  2 N        2.7870     0.0230    -0.5770 N.2   1 <1>  -0.8500 
  3 C        1.5180     0.0170    -0.3390 C.2   1 <1>   0.4390 
  4 N        0.8500    -1.1570    -0.3530 N.pl3 1 <1>  -0.8500 
  5 H       -0.1420    -1.2370    -0.1820 H     1 <1>   0.4000 
  6 H        1.3840    -1.9950    -0.5470 H     1 <1>   0.4000 
  7 C        0.7740     1.2960    -0.0630 C.3   1 <1>   0.0610 
  8 H        1.2820     1.8490     0.7320 H     1 <1>   0.0000 
  9 H        0.7610     1.9070    -0.9690 H     1 <1>   0.0000 
 10 H       -0.2540     1.0910     0.2460 H     1 <1>   0.0000 
@<TRIPOS>BOND
  1   1   2  1   
  2   2   3  2   
  3   3   4  1   
  4   3   7  1   
  5   4   5  1   
  6   4   6  1   
  7   7   8  1   
  8   7   9  1   
  9   7  10  1   
@<TRIPOS>SUBSTRUCTURE
  1 ****   3 GROUP 4 **** **** 0

# MOE 2022.02 (io_trps.svl 2020.11)

@<TRIPOS>MOLECULE
UNP160
24 25 1 0 0 
SMALL
USER_CHARGES


@<TRIPOS>ATOM
  1 H        0.4150    -1.5290    -1.2660 H     1 <1>   0.4000 
  2 O        1.3620    -1.5480    -1.0310 O.3   1 <1>  -0.6800 
  3 C        1.6410    -0.3300    -0.3430 C.3   1 <1>   0.2800 
  4 H        1.0450    -0.3350     0.5800 H     1 <1>   0.0000 
  5 C        1.3910     0.9190    -1.1800 C.3   1 <1>   0.2900 
  6 H        1.8050     0.7920    -2.1860 H     1 <1>   0.0000 
  7 CL      -0.3460     1.2450    -1.3940 Cl    1 <1>  -0.2900 
  8 C        2.1460     2.0220    -0.4140 C.3   1 <1>   0.2800 
  9 H        2.5620     2.7620    -1.1060 H     1 <1>   0.0000 
 10 O        1.3020     2.7250     0.5020 O.3   1 <1>  -0.6800 
 11 H        0.4970     2.9890     0.0150 H     1 <1>   0.4000 
 12 C        3.2250     1.2940     0.4240 C.3   1 <1>   0.0000 
 13 H        3.0050     1.3940     1.4960 H     1 <1>   0.0000 
 14 C        4.6250     1.8460     0.1830 C.3   1 <1>   0.2800 
 15 H        4.6510     2.9190     0.4060 H     1 <1>   0.0000 
 16 H        5.3520     1.3650     0.8510 H     1 <1>   0.0000 
 17 O        5.0730     1.6810    -1.1680 O.3   1 <1>  -0.3570 
 18 C        4.9050     0.4120    -1.6500 C.2   1 <1>  -0.0730 
 19 H        5.5240     0.2400    -2.5220 H     1 <1>   0.1500 
 20 C        4.0650    -0.4950    -1.1430 C.2   1 <1>  -0.2880 
 21 H        4.0040    -1.4820    -1.5950 H     1 <1>   0.1500 
 22 C        3.1400    -0.1820     0.0010 C.3   1 <1>   0.4180 
 23 O        3.4920    -1.0430     1.0760 O.3   1 <1>  -0.6800 
 24 H        3.2000    -1.9370     0.8140 H     1 <1>   0.4000 
@<TRIPOS>BOND
  1   1   2  1   
  2   2   3  1   
  3   3   4  1   
  4   3   5  1   
  5   3  22  1   
  6   5   6  1   
  7   5   7  1   
  8   5   8  1   
  9   8   9  1   
 10   8  10  1   
 11   8  12  1   
 12  10  11  1   
 13  12  13  1   
 14  12  14  1   
 15  12  22  1   
 16  14  15  1   
 17  14  16  1   
 18  14  17  1   
 19  17  18  1   
 20  18  19  1   
 21  18  20  2   
 22  20  21  1   
 23  20  22  1   
 24  22  23  1   
 25  23  24  1   
@<TRIPOS>SUBSTRUCTURE
  1 ****  22 GROUP 4 **** **** 0

# MOE 2022.02 (io_trps.svl 2020.11)

@<TRIPOS>MOLECULE
UNP161
22 23 1 0 0 
SMALL
USER_CHARGES


@<TRIPOS>ATOM
  1 H        5.7780    -0.9030     0.8770 H     1 <1>   0.4000 
  2 O        5.2670    -0.3830     0.2280 O.3   1 <1>  -0.3000 
  3 N        3.9110    -0.5760     0.7270 N.3   1 <1>  -0.6400 
  4 C        3.3430     0.7780     0.9150 C.3   1 <1>   0.2700 
  5 H        3.9870     1.4100     1.5370 H     1 <1>   0.0000 
  6 C        1.9810     0.5950     1.6110 C.3   1 <1>   0.0000 
  7 H        2.1400     0.1330     2.5950 H     1 <1>   0.0000 
  8 H        1.5170     1.5710     1.7950 H     1 <1>   0.0000 
  9 C        1.0170    -0.2800     0.8020 C.3   1 <1>   0.0000 
 10 H        0.2020    -0.6390     1.4410 H     1 <1>   0.0000 
 11 H        0.5450     0.3330     0.0230 H     1 <1>   0.0000 
 12 C        1.7320    -1.4640     0.1390 C.3   1 <1>   0.0000 
 13 H        1.1020    -1.8650    -0.6640 H     1 <1>   0.0000 
 14 H        1.8480    -2.2680     0.8780 H     1 <1>   0.0000 
 15 C        3.1190    -1.0850    -0.4150 C.3   1 <1>   0.2700 
 16 H        3.5810    -1.9660    -0.8740 H     1 <1>   0.0000 
 17 C        3.0440     0.0960    -1.3900 C.3   1 <1>   0.0000 
 18 H        2.1130     0.1130    -1.9650 H     1 <1>   0.0000 
 19 H        3.8750     0.0580    -2.1060 H     1 <1>   0.0000 
 20 C        3.1930     1.3350    -0.5050 C.3   1 <1>   0.0000 
 21 H        4.0920     1.8880    -0.8010 H     1 <1>   0.0000 
 22 H        2.3400     2.0140    -0.6060 H     1 <1>   0.0000 
@<TRIPOS>BOND
  1   1   2  1   
  2   2   3  1   
  3   3   4  1   
  4   3  15  1   
  5   4   5  1   
  6   4   6  1   
  7   4  20  1   
  8   6   7  1   
  9   6   8  1   
 10   6   9  1   
 11   9  10  1   
 12   9  11  1   
 13   9  12  1   
 14  12  13  1   
 15  12  14  1   
 16  12  15  1   
 17  15  16  1   
 18  15  17  1   
 19  17  18  1   
 20  17  19  1   
 21  17  20  1   
 22  20  21  1   
 23  20  22  1   
@<TRIPOS>SUBSTRUCTURE
  1 ****   3 GROUP 4 **** **** 0

# MOE 2022.02 (io_trps.svl 2020.11)

@<TRIPOS>MOLECULE
UNP162
32 33 1 0 0 
SMALL
USER_CHARGES


@<TRIPOS>ATOM
  1 H       -1.1830     6.3380    -2.1790 H     1 <1>   0.4500 
  2 O       -0.3220     6.1980    -1.7520 O.3   1 <1>  -0.5320 
  3 C       -0.2330     4.9330    -1.2460 C.ar  1 <1>   0.0820 
  4 C       -1.3710     4.1210    -1.2850 C.ar  1 <1>  -0.1500 
  5 H       -2.2990     4.4770    -1.7250 H     1 <1>   0.1500 
  6 C       -1.3320     2.8380    -0.7440 C.ar  1 <1>  -0.1500 
  7 H       -2.2180     2.2060    -0.7700 H     1 <1>   0.1500 
  8 C       -0.1570     2.3670    -0.1640 C.ar  1 <1>  -0.1500 
  9 H       -0.1350     1.3630     0.2590 H     1 <1>   0.1500 
 10 C        0.9880     3.1780    -0.1330 C.ar  1 <1>   0.0860 
 11 C        0.9630     4.4710    -0.6740 C.ar  1 <1>   0.0860 
 12 C        2.1890     5.3240    -0.6140 C.2   1 <1>   0.4230 
 13 O        2.3120     6.3520    -1.2700 O.2   1 <1>  -0.5700 
 14 C        3.2860     4.9000     0.3240 C.3   1 <1>   0.1220 
 15 H        4.1990     5.4200     0.0250 H     1 <1>   0.0000 
 16 H        3.0280     5.2290     1.3360 H     1 <1>   0.0000 
 17 C        3.4870     3.4190     0.3300 C.2   1 <1>   0.3890 
 18 N        4.5980     2.7740     0.2200 N.2   1 <1>  -0.6960 
 19 C        5.8470     3.5110     0.0810 C.3   1 <1>   0.2460 
 20 H        5.8490     4.0920    -0.8490 H     1 <1>   0.0000 
 21 H        5.9930     4.1900     0.9290 H     1 <1>   0.0000 
 22 C        6.9870     2.4960     0.0420 C.3   1 <1>   0.0000 
 23 H        6.8440     1.8090    -0.8020 H     1 <1>   0.0000 
 24 H        6.9610     1.8740     0.9470 H     1 <1>   0.0000 
 25 C        8.3410     3.1830    -0.0730 C.3   1 <1>   0.0610 
 26 H        8.5330     3.8110     0.8040 H     1 <1>   0.0000 
 27 H        8.3830     3.8130    -0.9680 H     1 <1>   0.0000 
 28 C        9.4380     2.1550    -0.1530 C.2   1 <1>   0.4490 
 29 H        9.4410     1.3880     0.6410 H     1 <1>   0.0600 
 30 O       10.3250     2.1840    -1.0000 O.2   1 <1>  -0.5700 
 31 C        2.2100     2.6270     0.4840 C.2   1 <1>   0.4840 
 32 O        2.2030     1.5780     1.1100 O.2   1 <1>  -0.5700 
@<TRIPOS>BOND
  1   1   2  1   
  2   2   3  1   
  3   3   4  ar  
  4   3  11  ar  
  5   4   5  1   
  6   4   6  ar  
  7   6   7  1   
  8   6   8  ar  
  9   8   9  1   
 10   8  10  ar  
 11  10  11  ar  
 12  10  31  1   
 13  11  12  1   
 14  12  13  2   
 15  12  14  1   
 16  14  15  1   
 17  14  16  1   
 18  14  17  1   
 19  17  18  2   
 20  17  31  1   
 21  18  19  1   
 22  19  20  1   
 23  19  21  1   
 24  19  22  1   
 25  22  23  1   
 26  22  24  1   
 27  22  25  1   
 28  25  26  1   
 29  25  27  1   
 30  25  28  1   
 31  28  29  1   
 32  28  30  2   
 33  31  32  2   
@<TRIPOS>SUBSTRUCTURE
  1 ****  17 GROUP 4 **** **** 0

# MOE 2022.02 (io_trps.svl 2020.11)

@<TRIPOS>MOLECULE
UNP163
20 19 1 0 0 
SMALL
USER_CHARGES


@<TRIPOS>ATOM
  1 H       -3.1740    -6.0620    -0.1220 H     1 <1>   0.4000 
  2 O       -2.2070    -6.0050    -0.1840 O.3   1 <1>  -0.6800 
  3 C       -1.6920    -7.2230     0.3310 C.3   1 <1>   0.4800 
  4 H       -2.0940    -8.0490    -0.2620 H     1 <1>   0.0000 
  5 H       -2.0320    -7.3350     1.3650 H     1 <1>   0.0000 
  6 C       -0.2330    -7.2000     0.2650 C.1   1 <1>  -0.2000 
  7 C        0.9660    -7.1840     0.2130 C.1   1 <1>   0.0000 
  8 C        2.3970    -7.1680     0.1540 C.1   1 <1>   0.0000 
  9 C        3.5960    -7.1590     0.1080 C.1   1 <1>   0.0000 
 10 C        5.0280    -7.1550     0.0570 C.1   1 <1>   0.0000 
 11 C        6.2270    -7.1590     0.0180 C.1   1 <1>   0.0000 
 12 C        7.6590    -7.1700    -0.0250 C.1   1 <1>   0.0000 
 13 C        8.8580    -7.1860    -0.0590 C.1   1 <1>   0.0000 
 14 C       10.2900    -7.2100    -0.0960 C.1   1 <1>   0.0000 
 15 C       11.4900    -7.2340    -0.1240 C.1   1 <1>  -0.0650 
 16 C       12.9090    -7.2570    -0.1600 C.2   1 <1>  -0.0850 
 17 H       13.4260    -6.3870    -0.5520 H     1 <1>   0.1500 
 18 C       13.6030    -8.3150     0.2740 C.2   1 <1>  -0.3000 
 19 H       13.1130    -9.1990     0.6700 H     1 <1>   0.1500 
 20 H       14.6880    -8.3160     0.2390 H     1 <1>   0.1500 
@<TRIPOS>BOND
  1   1   2  1   
  2   2   3  1   
  3   3   4  1   
  4   3   5  1   
  5   3   6  1   
  6   6   7  3   
  7   7   8  1   
  8   8   9  3   
  9   9  10  1   
 10  10  11  3   
 11  11  12  1   
 12  12  13  3   
 13  13  14  1   
 14  14  15  3   
 15  15  16  1   
 16  16  17  1   
 17  16  18  2   
 18  18  19  1   
 19  18  20  1   
@<TRIPOS>SUBSTRUCTURE
  1 ****  11 GROUP 4 **** **** 0

# MOE 2022.02 (io_trps.svl 2020.11)

@<TRIPOS>MOLECULE
UNP164
19 19 1 0 0 
SMALL
USER_CHARGES


@<TRIPOS>ATOM
  1 H        6.8530    -0.6110    -0.9800 H     1 <1>   0.4000 
  2 N        6.0390    -1.2140    -1.1530 N.2   1 <1>  -0.8500 
  3 C        4.9760    -0.7410    -0.5950 C.2   1 <1>   0.3280 
  4 C        4.9460     0.5030     0.2340 C.3   1 <1>   0.1220 
  5 H        5.5160     0.3560     1.1530 H     1 <1>   0.0000 
  6 H        5.3100     1.3520    -0.3460 H     1 <1>   0.0000 
  7 C        3.4840     0.6570     0.5400 C.2   1 <1>   0.4480 
  8 O        3.0350     1.5480     1.2550 O.2   1 <1>  -0.5700 
  9 C        2.6340    -0.3730    -0.2290 C.3   1 <1>   0.4790 
 10 O        2.1220     0.2920    -1.3830 O.3   1 <1>  -0.6800 
 11 H        1.4650     0.9410    -1.0740 H     1 <1>   0.4000 
 12 C        1.4610    -0.8400     0.5930 C.2   1 <1>  -0.2880 
 13 H        0.9100    -0.0550     1.1120 H     1 <1>   0.1500 
 14 C        1.0260    -2.0990     0.7520 C.2   1 <1>  -0.3000 
 15 H        0.1610    -2.3060     1.3760 H     1 <1>   0.1500 
 16 H        1.4890    -2.9490     0.2620 H     1 <1>   0.1500 
 17 C        3.6480    -1.4410    -0.6740 C.3   1 <1>   0.0610 
 18 H        3.7040    -2.2900     0.0150 H     1 <1>   0.0000 
 19 H        3.4710    -1.8000    -1.6920 H     1 <1>   0.0000 
@<TRIPOS>BOND
  1   1   2  1   
  2   2   3  2   
  3   3   4  1   
  4   3  17  1   
  5   4   5  1   
  6   4   6  1   
  7   4   7  1   
  8   7   8  2   
  9   7   9  1   
 10   9  10  1   
 11   9  12  1   
 12   9  17  1   
 13  10  11  1   
 14  12  13  1   
 15  12  14  2   
 16  14  15  1   
 17  14  16  1   
 18  17  18  1   
 19  17  19  1   
@<TRIPOS>SUBSTRUCTURE
  1 ****   9 GROUP 4 **** **** 0

# MOE 2022.02 (io_trps.svl 2020.11)

@<TRIPOS>MOLECULE
UNP165
25 24 1 0 0 
SMALL
USER_CHARGES


@<TRIPOS>ATOM
  1 H        4.0520    -1.6880    -1.0830 H     1 <1>   0.1500 
  2 C        3.9470    -1.0350    -0.2260 C.2   1 <1>  -0.1360 
  3 C        2.6170    -0.4270     0.0400 C.2   1 <1>   0.6160 
  4 O        2.4030     0.3120     0.9920 O.2   1 <1>  -0.5700 
  5 N        1.6730    -0.7870    -0.8920 N.am  1 <1>  -0.7300 
  6 H        1.9200    -1.4040    -1.6520 H     1 <1>   0.3700 
  7 C        0.3090    -0.3030    -0.8170 C.3   1 <1>   0.3000 
  8 H        0.3320     0.7420    -0.4890 H     1 <1>   0.0000 
  9 H       -0.0970    -0.3230    -1.8350 H     1 <1>   0.0000 
 10 C       -0.5600    -1.1390     0.1350 C.3   1 <1>   0.0000 
 11 H       -0.0770    -1.1850     1.1180 H     1 <1>   0.0000 
 12 C       -0.7330    -2.5720    -0.3740 C.3   1 <1>   0.0000 
 13 H       -1.3650    -3.1520     0.3070 H     1 <1>   0.0000 
 14 H       -1.2020    -2.5880    -1.3650 H     1 <1>   0.0000 
 15 H        0.2310    -3.0860    -0.4460 H     1 <1>   0.0000 
 16 C       -1.9280    -0.4790     0.3100 C.3   1 <1>   0.0000 
 17 H       -1.8230     0.5330     0.7150 H     1 <1>   0.0000 
 18 H       -2.5510    -1.0530     1.0060 H     1 <1>   0.0000 
 19 H       -2.4620    -0.4090    -0.6430 H     1 <1>   0.0000 
 20 C        4.9860    -0.7760     0.5830 C.2   1 <1>  -0.2880 
 21 H        4.8510    -0.1150     1.4380 H     1 <1>   0.1500 
 22 C        6.3530    -1.3420     0.3940 C.3   1 <1>   0.1380 
 23 H        6.4120    -1.9980    -0.4810 H     1 <1>   0.0000 
 24 H        6.6410    -1.9230     1.2750 H     1 <1>   0.0000 
 25 H        7.0780    -0.5330     0.2630 H     1 <1>   0.0000 
@<TRIPOS>BOND
  1   1   2  1   
  2   2   3  1   
  3   2  20  2   
  4   3   4  2   
  5   3   5  am  
  6   5   6  1   
  7   5   7  1   
  8   7   8  1   
  9   7   9  1   
 10   7  10  1   
 11  10  11  1   
 12  10  12  1   
 13  10  16  1   
 14  12  13  1   
 15  12  14  1   
 16  12  15  1   
 17  16  17  1   
 18  16  18  1   
 19  16  19  1   
 20  20  21  1   
 21  20  22  1   
 22  22  23  1   
 23  22  24  1   
 24  22  25  1   
@<TRIPOS>SUBSTRUCTURE
  1 ****   3 GROUP 4 **** **** 0

# MOE 2022.02 (io_trps.svl 2020.11)

@<TRIPOS>MOLECULE
UNP166
15 15 1 0 0 
SMALL
USER_CHARGES


@<TRIPOS>ATOM
  1 H       -2.9310     0.9980     0.3070 H     1 <1>   0.1500 
  2 C       -2.0700     1.6540     0.2800 C.2   1 <1>  -0.1500 
  3 C       -2.0700     3.0630     0.3240 C.2   1 <1>  -0.1500 
  4 H       -2.9350     3.7120     0.3920 H     1 <1>   0.1500 
  5 C       -0.7570     3.4770     0.2660 C.2   1 <1>  -0.3020 
  6 H       -0.3520     4.4800     0.2750 H     1 <1>   0.1500 
  7 N        0.0680     2.3670     0.1860 N.pl3 1 <1>   0.2940 
  8 C        1.4740     2.3270     0.1070 C.2   1 <1>   0.5180 
  9 O        2.0490     1.2470     0.0430 O.2   1 <1>  -0.5700 
 10 C        2.1560     3.6610     0.1090 C.3   1 <1>   0.0610 
 11 H        3.2380     3.5060     0.0450 H     1 <1>   0.0000 
 12 H        1.9480     4.1980     1.0380 H     1 <1>   0.0000 
 13 H        1.8490     4.2510    -0.7590 H     1 <1>   0.0000 
 14 C       -0.7570     1.2520     0.1960 C.2   1 <1>  -0.3020 
 15 H       -0.3220     0.2620     0.1420 H     1 <1>   0.1500 
@<TRIPOS>BOND
  1   1   2  1   
  2   2   3  1   
  3   2  14  2   
  4   3   4  1   
  5   3   5  2   
  6   5   6  1   
  7   5   7  1   
  8   7   8  1   
  9   7  14  1   
 10   8   9  2   
 11   8  10  1   
 12  10  11  1   
 13  10  12  1   
 14  10  13  1   
 15  14  15  1   
@<TRIPOS>SUBSTRUCTURE
  1 ****   7 GROUP 4 **** **** 0

# MOE 2022.02 (io_trps.svl 2020.11)

@<TRIPOS>MOLECULE
UNP167
22 21 1 0 0 
SMALL
USER_CHARGES


@<TRIPOS>ATOM
  1 H        5.5830    -0.2820     0.6440 H     1 <1>   0.0600 
  2 C        5.4470    -1.2540     0.1400 C.2   1 <1>   0.4490 
  3 O        6.3460    -1.7410    -0.5390 O.2   1 <1>  -0.5700 
  4 C        4.1320    -1.9450     0.3880 C.3   1 <1>   0.0610 
  5 H        4.0840    -2.2020     1.4520 H     1 <1>   0.0000 
  6 H        4.1060    -2.8730    -0.1930 H     1 <1>   0.0000 
  7 C        2.9750    -1.0300     0.0000 C.3   1 <1>   0.0000 
  8 H        3.0670    -0.7520    -1.0580 H     1 <1>   0.0000 
  9 H        3.0420    -0.1010     0.5770 H     1 <1>   0.0000 
 10 C        1.6250    -1.7100     0.2430 C.3   1 <1>   0.0000 
 11 H        1.6220    -2.6780    -0.2750 H     1 <1>   0.0000 
 12 H        1.5150    -1.9260     1.3130 H     1 <1>   0.0000 
 13 C        0.4230    -0.8820    -0.2480 C.3   1 <1>   0.0000 
 14 H        0.5630    -0.6580    -1.3130 H     1 <1>   0.0000 
 15 C       -0.8630    -1.7000    -0.1070 C.3   1 <1>   0.0000 
 16 H       -1.7240    -1.1410    -0.4870 H     1 <1>   0.0000 
 17 H       -1.0590    -1.9540     0.9400 H     1 <1>   0.0000 
 18 H       -0.7950    -2.6330    -0.6760 H     1 <1>   0.0000 
 19 C        0.2780     0.4420     0.5040 C.3   1 <1>   0.0000 
 20 H        1.1310     1.1020     0.3180 H     1 <1>   0.0000 
 21 H        0.2010     0.2780     1.5840 H     1 <1>   0.0000 
 22 H       -0.6210     0.9770     0.1780 H     1 <1>   0.0000 
@<TRIPOS>BOND
  1   1   2  1   
  2   2   3  2   
  3   2   4  1   
  4   4   5  1   
  5   4   6  1   
  6   4   7  1   
  7   7   8  1   
  8   7   9  1   
  9   7  10  1   
 10  10  11  1   
 11  10  12  1   
 12  10  13  1   
 13  13  14  1   
 14  13  15  1   
 15  13  19  1   
 16  15  16  1   
 17  15  17  1   
 18  15  18  1   
 19  19  20  1   
 20  19  21  1   
 21  19  22  1   
@<TRIPOS>SUBSTRUCTURE
  1 ****   7 GROUP 4 **** **** 0

# MOE 2022.02 (io_trps.svl 2020.11)

@<TRIPOS>MOLECULE
UNP168
15 14 1 0 0 
SMALL
USER_CHARGES


@<TRIPOS>ATOM
  1 H        3.3410     2.2760    -0.3390 H     1 <1>   0.1800 
  2 S        2.4420     1.4300    -0.8660 S.3   1 <1>  -0.4100 
  3 C        3.0270    -0.0590     0.0040 C.3   1 <1>   0.2300 
  4 H        2.9530     0.1220     1.0820 H     1 <1>   0.0000 
  5 H        4.0910    -0.1720    -0.2340 H     1 <1>   0.0000 
  6 C        2.2490    -1.3200    -0.3970 C.3   1 <1>   0.0610 
  7 H        2.2680    -1.4180    -1.4900 H     1 <1>   0.0000 
  8 C        2.9730    -2.5300     0.1620 C.2   1 <1>   0.4490 
  9 H        2.6830    -3.5040    -0.2700 H     1 <1>   0.0600 
 10 O        3.8230    -2.4750     1.0460 O.2   1 <1>  -0.5700 
 11 C        0.8110    -1.3100     0.1330 C.3   1 <1>   0.2300 
 12 H        0.7950    -1.4220     1.2230 H     1 <1>   0.0000 
 13 H        0.3000    -0.3760    -0.1120 H     1 <1>   0.0000 
 14 S       -0.1960    -2.6530    -0.5800 S.3   1 <1>  -0.4100 
 15 H       -1.3480    -2.3170     0.0210 H     1 <1>   0.1800 
@<TRIPOS>BOND
  1   1   2  1   
  2   2   3  1   
  3   3   4  1   
  4   3   5  1   
  5   3   6  1   
  6   6   7  1   
  7   6   8  1   
  8   6  11  1   
  9   8   9  1   
 10   8  10  2   
 11  11  12  1   
 12  11  13  1   
 13  11  14  1   
 14  14  15  1   
@<TRIPOS>SUBSTRUCTURE
  1 ****   6 GROUP 4 **** **** 0

# MOE 2022.02 (io_trps.svl 2020.11)

@<TRIPOS>MOLECULE
UNP169
23 24 1 0 0 
SMALL
USER_CHARGES


@<TRIPOS>ATOM
  1 H        0.5020     3.7880     0.3000 H     1 <1>   0.4000 
  2 O        1.3570     3.4140     0.5710 O.3   1 <1>  -0.6800 
  3 C        1.3270     2.0720     0.1000 C.3   1 <1>   0.5600 
  4 H        1.1280     2.0910    -0.9780 H     1 <1>   0.0000 
  5 O        0.2360     1.3960     0.7650 O.3   1 <1>  -0.3570 
  6 C        0.3490     0.0350     0.9360 C.2   1 <1>  -0.0730 
  7 H       -0.5340    -0.3620     1.4230 H     1 <1>   0.1500 
  8 C        1.3980    -0.7150     0.5690 C.2   1 <1>  -0.2880 
  9 H        1.3980    -1.7890     0.7170 H     1 <1>   0.1500 
 10 C        2.5430    -0.0500    -0.1110 C.3   1 <1>   0.1380 
 11 H        2.2940    -0.0420    -1.1870 H     1 <1>   0.0000 
 12 C        3.9710    -0.5790     0.0030 C.3   1 <1>   0.1380 
 13 H        4.2270    -0.9250     1.0090 H     1 <1>   0.0000 
 14 H        4.1540    -1.3830    -0.7170 H     1 <1>   0.0000 
 15 C        4.7360     0.6710    -0.3540 C.2   1 <1>  -0.2880 
 16 H        5.7600     0.6630    -0.7010 H     1 <1>   0.1500 
 17 C        3.9870     1.7740    -0.1720 C.2   1 <1>  -0.2760 
 18 C        4.3870     3.1890    -0.3780 C.3   1 <1>   0.1380 
 19 H        4.3120     3.7490     0.5590 H     1 <1>   0.0000 
 20 H        5.4190     3.2660    -0.7340 H     1 <1>   0.0000 
 21 H        3.7400     3.6640    -1.1220 H     1 <1>   0.0000 
 22 C        2.6570     1.3880     0.4170 C.3   1 <1>   0.1380 
 23 H        2.7870     1.4000     1.5120 H     1 <1>   0.0000 
@<TRIPOS>BOND
  1   1   2  1   
  2   2   3  1   
  3   3   4  1   
  4   3   5  1   
  5   3  22  1   
  6   5   6  1   
  7   6   7  1   
  8   6   8  2   
  9   8   9  1   
 10   8  10  1   
 11  10  11  1   
 12  10  12  1   
 13  10  22  1   
 14  12  13  1   
 15  12  14  1   
 16  12  15  1   
 17  15  16  1   
 18  15  17  2   
 19  17  18  1   
 20  17  22  1   
 21  18  19  1   
 22  18  20  1   
 23  18  21  1   
 24  22  23  1   
@<TRIPOS>SUBSTRUCTURE
  1 ****  22 GROUP 4 **** **** 0

# MOE 2022.02 (io_trps.svl 2020.11)

@<TRIPOS>MOLECULE
UNP170
15 14 1 0 0 
SMALL
USER_CHARGES


@<TRIPOS>ATOM
  1 H       -0.0880    -1.8510     0.6280 H     1 <1>   0.5000 
  2 O        0.0530    -1.6600    -0.3180 O.3   1 <1>  -0.7710 
  3 P        1.1350    -0.4750    -0.4940 P.3   1 <1>   1.2790 
  4 H        1.1970    -0.2450    -1.8830 H     1 <1>  -0.0360 
  5 O        0.8760     0.5720     0.5490 O.2   1 <1>  -0.7000 
  6 O        2.4740    -1.3170    -0.1530 O.3   1 <1>  -0.5510 
  7 C        3.6930    -0.5900    -0.2100 C.3   1 <1>   0.2800 
  8 H        3.7780    -0.1120    -1.1920 H     1 <1>   0.0000 
  9 H        3.6780     0.1880     0.5600 H     1 <1>   0.0000 
 10 C        4.8590    -1.5510     0.0220 C.3   1 <1>   0.2700 
 11 H        4.7350    -2.0600     0.9840 H     1 <1>   0.0000 
 12 H        4.8420    -2.3340    -0.7450 H     1 <1>   0.0000 
 13 N        6.1480    -0.8650    -0.0130 N.3   1 <1>  -0.9900 
 14 H        6.8920    -1.5470     0.1370 H     1 <1>   0.3600 
 15 H        6.2090    -0.2110     0.7680 H     1 <1>   0.3600 
@<TRIPOS>BOND
  1   1   2  1   
  2   2   3  1   
  3   3   4  1   
  4   3   5  2   
  5   3   6  1   
  6   6   7  1   
  7   7   8  1   
  8   7   9  1   
  9   7  10  1   
 10  10  11  1   
 11  10  12  1   
 12  10  13  1   
 13  13  14  1   
 14  13  15  1   
@<TRIPOS>SUBSTRUCTURE
  1 ****   6 GROUP 4 **** **** 0

# MOE 2022.02 (io_trps.svl 2020.11)

@<TRIPOS>MOLECULE
UNP171
29 30 1 0 0 
SMALL
USER_CHARGES


@<TRIPOS>ATOM
  1 H        0.9150     2.0480     0.6430 H     1 <1>   0.4000 
  2 N        1.8770     1.8190     0.3770 N.2   1 <1>  -0.8500 
  3 C        2.0370     0.5440     0.2550 C.2   1 <1>   0.3030 
  4 C        1.0230    -0.4820     0.4340 C.ar  1 <1>   0.0860 
  5 C       -0.3220    -0.3550     0.7360 C.ar  1 <1>  -0.1500 
  6 H       -0.7860     0.6120     0.8850 H     1 <1>   0.1500 
  7 C       -1.0750    -1.5250     0.8410 C.ar  1 <1>  -0.1500 
  8 H       -2.1360    -1.4680     1.0760 H     1 <1>   0.1500 
  9 C       -0.4760    -2.7800     0.6440 C.ar  1 <1>  -0.1500 
 10 H       -1.0780    -3.6820     0.7300 H     1 <1>   0.1500 
 11 C        0.8850    -2.8820     0.3400 C.ar  1 <1>  -0.1500 
 12 H        1.3440    -3.8550     0.1940 H     1 <1>   0.1500 
 13 C        1.6300    -1.7170     0.2350 C.ar  1 <1>  -0.1440 
 14 C        3.0960    -1.6070    -0.0500 C.3   1 <1>   0.1440 
 15 H        3.3480    -2.1060    -0.9910 H     1 <1>   0.0000 
 16 H        3.6570    -2.0730     0.7670 H     1 <1>   0.0000 
 17 C        3.3570    -0.0870    -0.1510 C.3   1 <1>   0.0610 
 18 H        3.5320     0.1930    -1.1980 H     1 <1>   0.0000 
 19 C        4.5120     0.4130     0.7250 C.3   1 <1>   0.0000 
 20 H        4.4100     1.4960     0.8800 H     1 <1>   0.0000 
 21 H        4.4440    -0.0240     1.7310 H     1 <1>   0.0000 
 22 C        5.8930     0.1520     0.1170 C.3   1 <1>   0.3310 
 23 H        5.9450     0.5790    -0.8910 H     1 <1>   0.0000 
 24 C        6.9560     0.8650     0.9530 C.2   1 <1>   0.4490 
 25 H        6.8090     1.9520     1.0760 H     1 <1>   0.0600 
 26 O        7.9390     0.3070     1.4360 O.2   1 <1>  -0.5700 
 27 N        6.2010    -1.2860     0.0400 N.3   1 <1>  -0.9900 
 28 H        6.2970    -1.6400     0.9970 H     1 <1>   0.3600 
 29 H        7.1510    -1.3800    -0.3320 H     1 <1>   0.3600 
@<TRIPOS>BOND
  1   1   2  1   
  2   2   3  2   
  3   3   4  1   
  4   3  17  1   
  5   4   5  ar  
  6   4  13  ar  
  7   5   6  1   
  8   5   7  ar  
  9   7   8  1   
 10   7   9  ar  
 11   9  10  1   
 12   9  11  ar  
 13  11  12  1   
 14  11  13  ar  
 15  13  14  1   
 16  14  15  1   
 17  14  16  1   
 18  14  17  1   
 19  17  18  1   
 20  17  19  1   
 21  19  20  1   
 22  19  21  1   
 23  19  22  1   
 24  22  23  1   
 25  22  24  1   
 26  22  27  1   
 27  24  25  1   
 28  24  26  2   
 29  27  28  1   
 30  27  29  1   
@<TRIPOS>SUBSTRUCTURE
  1 ****  17 GROUP 4 **** **** 0

# MOE 2022.02 (io_trps.svl 2020.11)

@<TRIPOS>MOLECULE
UNP172
8 8 1 0 0 
SMALL
USER_CHARGES


@<TRIPOS>ATOM
  1 H       -2.4590     0.0440    -0.0010 H     1 <1>   0.1500 
  2 C       -1.6820     0.8010    -0.0010 C.2   1 <1>  -0.0490 
  3 S       -2.1400     2.4630    -0.0010 S.3   1 <1>  -0.1010 
  4 S       -0.2160     3.1520     0.0000 S.3   1 <1>  -0.1410 
  5 C        0.5820     1.5860     0.0000 C.2   1 <1>   0.5070 
  6 S        2.2430     1.4060     0.0010 S.2   1 <1>  -0.3800 
  7 C       -0.3880     0.4700     0.0000 C.2   1 <1>  -0.1360 
  8 H       -0.0390    -0.5540     0.0010 H     1 <1>   0.1500 
@<TRIPOS>BOND
  1   1   2  1   
  2   2   3  1   
  3   2   7  2   
  4   3   4  1   
  5   4   5  1   
  6   5   6  2   
  7   5   7  1   
  8   7   8  1   
@<TRIPOS>SUBSTRUCTURE
  1 ****   5 GROUP 4 **** **** 0

# MOE 2022.02 (io_trps.svl 2020.11)

@<TRIPOS>MOLECULE
UNP173
24 23 1 0 0 
SMALL
NO_CHARGES


@<TRIPOS>ATOM
  1 H        9.1370     3.6480     0.0000 H     1 <1>   0.0000 
  2 C        9.1370     2.4480     0.0000 C.2   1 <1>   0.0000 
  3 O       10.4360     1.6980     0.0000 O.2   1 <1>   0.0000 
  4 C        7.8380     1.6980     0.0000 C.3   1 <1>   0.0000 
  5 H        7.0670     0.7790     0.0000 H     1 <1>   0.0000 
  6 H        8.6100     0.7790     0.0000 H     1 <1>   0.0000 
  7 C        6.5390     2.4480     0.0000 C.3   1 <1>   0.0000 
  8 H        5.7680     3.3680     0.0000 H     1 <1>   0.0000 
  9 H        7.3110     3.3680     0.0000 H     1 <1>   0.0000 
 10 C        5.2400     1.6980     0.0000 C.3   1 <1>   0.0000 
 11 H        4.4690     0.7790     0.0000 H     1 <1>   0.0000 
 12 H        6.0120     0.7790     0.0000 H     1 <1>   0.0000 
 13 SE       3.9410     2.4480     0.0000 Se    1 <1>   0.0000 
 14 C        2.6420     1.6980     0.0000 C.3   1 <1>   0.0000 
 15 H        1.8710     0.7790     0.0000 H     1 <1>   0.0000 
 16 H        3.4130     0.7790     0.0000 H     1 <1>   0.0000 
 17 C        1.3430     2.4480     0.0000 C.3   1 <1>   0.0000 
 18 H        1.3430     1.2480     0.0000 H     1 <1>   0.0000 
 19 C        0.0440     1.6980     0.0000 C.2   1 <1>   0.0000 
 20 H        0.0440     0.4980     0.0000 H     1 <1>   0.0000 
 21 O       -1.2550     2.4480     0.0000 O.2   1 <1>   0.0000 
 22 N        1.3430     3.9480     0.0000 N.3   1 <1>   0.0000 
 23 H        2.3820     4.5480     0.0000 H     1 <1>   0.0000 
 24 H        0.3040     4.5480     0.0000 H     1 <1>   0.0000 
@<TRIPOS>BOND
  1   1   2  1   
  2   2   3  2   
  3   2   4  1   
  4   4   5  1   
  5   4   6  1   
  6   4   7  1   
  7   7   8  1   
  8   7   9  1   
  9   7  10  1   
 10  10  11  1   
 11  10  12  1   
 12  10  13  1   
 13  13  14  1   
 14  14  15  1   
 15  14  16  1   
 16  14  17  1   
 17  17  18  1   
 18  17  19  1   
 19  17  22  1   
 20  19  20  1   
 21  19  21  2   
 22  22  23  1   
 23  22  24  1   
@<TRIPOS>SUBSTRUCTURE
  1 ****  13 GROUP 4 **** **** 0

# MOE 2022.02 (io_trps.svl 2020.11)

@<TRIPOS>MOLECULE
UNP174
24 24 1 0 0 
SMALL
USER_CHARGES


@<TRIPOS>ATOM
  1 H       -0.3230    -0.4930     0.3420 H     1 <1>   0.4000 
  2 O        0.2760     0.1420    -0.0910 O.3   1 <1>  -0.6800 
  3 C        1.6070    -0.2450     0.2110 C.3   1 <1>   0.2800 
  4 H        1.7410    -0.2050     1.2980 H     1 <1>   0.0000 
  5 C        2.0000    -1.5960    -0.3490 C.3   1 <1>   0.2800 
  6 H        1.6090    -1.7510    -1.3610 H     1 <1>   0.0000 
  7 H        1.6470    -2.4210     0.2760 H     1 <1>   0.0000 
  8 O        3.4290    -1.5960    -0.3930 O.3   1 <1>  -0.5600 
  9 C        3.8680    -0.2260    -0.4930 C.3   1 <1>   0.6200 
 10 F        4.4720    -0.0950    -1.7040 F     1 <1>  -0.3400 
 11 C        4.8770     0.0990     0.6130 C.3   1 <1>   0.2800 
 12 H        5.3030     1.0990     0.4810 H     1 <1>   0.0000 
 13 H        4.3750     0.0750     1.5870 H     1 <1>   0.0000 
 14 O        5.9340    -0.8560     0.7040 O.3   1 <1>  -0.4640 
 15 S        7.0040    -0.9560    -0.5090 S.o2  1 <1>   1.6220 
 16 O        7.3430     0.3660    -0.9790 O.2   1 <1>  -0.6500 
 17 O        6.6410    -2.0360    -1.3940 O.2   1 <1>  -0.6500 
 18 N        8.3870    -1.5020     0.2690 N.am  1 <1>  -0.9780 
 19 H        8.5400    -2.4730    -0.0030 H     1 <1>   0.4200 
 20 H        9.1630    -0.8930     0.0120 H     1 <1>   0.4200 
 21 C        2.6120     0.6570    -0.4790 C.3   1 <1>   0.2800 
 22 H        2.2980     0.8860    -1.5050 H     1 <1>   0.0000 
 23 O        2.7400     1.8980     0.2110 O.3   1 <1>  -0.6800 
 24 H        1.8550     2.3120     0.1790 H     1 <1>   0.4000 
@<TRIPOS>BOND
  1   1   2  1   
  2   2   3  1   
  3   3   4  1   
  4   3   5  1   
  5   3  21  1   
  6   5   6  1   
  7   5   7  1   
  8   5   8  1   
  9   8   9  1   
 10   9  10  1   
 11   9  11  1   
 12   9  21  1   
 13  11  12  1   
 14  11  13  1   
 15  11  14  1   
 16  14  15  1   
 17  15  16  2   
 18  15  17  2   
 19  15  18  am  
 20  18  19  1   
 21  18  20  1   
 22  21  22  1   
 23  21  23  1   
 24  23  24  1   
@<TRIPOS>SUBSTRUCTURE
  1 ****   9 GROUP 4 **** **** 0

# MOE 2022.02 (io_trps.svl 2020.11)

@<TRIPOS>MOLECULE
UNP175
17 17 1 0 0 
SMALL
USER_CHARGES


@<TRIPOS>ATOM
  1 H       -3.7510     0.6590     0.3670 H     1 <1>   0.0600 
  2 C       -3.1070    -0.2030     0.1430 C.2   1 <1>   0.5400 
  3 N       -1.8340    -0.1490     0.2250 N.2   1 <1>  -0.6610 
  4 C       -1.1550    -1.2830    -0.0770 C.2   1 <1>   0.7110 
  5 N        0.2220    -1.2600     0.0040 N.pl3 1 <1>  -0.7880 
  6 C        1.0030    -2.4510    -0.2830 C.3   1 <1>   0.3690 
  7 H        0.9040    -2.7250    -1.3380 H     1 <1>   0.0000 
  8 H        0.6640    -3.2920     0.3330 H     1 <1>   0.0000 
  9 H        2.0690    -2.3100    -0.0750 H     1 <1>   0.0000 
 10 C        0.9380    -0.0520     0.3750 C.3   1 <1>   0.3690 
 11 H        2.0240    -0.1760     0.3100 H     1 <1>   0.0000 
 12 H        0.6690     0.7750    -0.2910 H     1 <1>   0.0000 
 13 H        0.6980     0.2310     1.4050 H     1 <1>   0.0000 
 14 N       -1.7760    -2.3540    -0.4300 N.2   1 <1>  -0.6610 
 15 C       -3.1310    -2.3870    -0.5120 C.2   1 <1>   0.9310 
 16 O       -3.7400    -3.3970    -0.8470 O.2   1 <1>  -0.5700 
 17 O       -3.8250    -1.2640    -0.2110 O.3   1 <1>  -0.3000 
@<TRIPOS>BOND
  1   1   2  1   
  2   2   3  2   
  3   2  17  1   
  4   3   4  1   
  5   4   5  1   
  6   4  14  2   
  7   5   6  1   
  8   5  10  1   
  9   6   7  1   
 10   6   8  1   
 11   6   9  1   
 12  10  11  1   
 13  10  12  1   
 14  10  13  1   
 15  14  15  1   
 16  15  16  2   
 17  15  17  1   
@<TRIPOS>SUBSTRUCTURE
  1 ****   4 GROUP 4 **** **** 0

# MOE 2022.02 (io_trps.svl 2020.11)

@<TRIPOS>MOLECULE
UNP176
32 32 1 0 0 
SMALL
USER_CHARGES


@<TRIPOS>ATOM
  1 H        1.8040    -1.6680    -1.9870 H     1 <1>   0.4000 
  2 O        2.0890    -0.7410    -2.0430 O.3   1 <1>  -0.6800 
  3 C        2.1450    -0.2010    -0.7210 C.3   1 <1>   0.2800 
  4 C        2.4260     1.3040    -0.9020 C.3   1 <1>   0.0000 
  5 H        3.3930     1.4630    -1.3950 H     1 <1>   0.0000 
  6 H        2.4370     1.8310     0.0570 H     1 <1>   0.0000 
  7 H        1.6900     1.7790    -1.5590 H     1 <1>   0.0000 
  8 C        3.3440    -0.8180     0.0550 C.3   1 <1>   0.0000 
  9 H        4.2350    -0.1950    -0.1040 H     1 <1>   0.0000 
 10 H        3.1490    -0.7640     1.1340 H     1 <1>   0.0000 
 11 C        3.7470    -2.2430    -0.3490 C.3   1 <1>   0.0000 
 12 H        2.8950    -2.9260    -0.3190 H     1 <1>   0.0000 
 13 H        4.1210    -2.2420    -1.3790 H     1 <1>   0.0000 
 14 C        4.8400    -2.7850     0.5620 C.3   1 <1>   0.0000 
 15 H        5.1290    -3.7930     0.2470 H     1 <1>   0.0000 
 16 H        4.4940    -2.8400     1.5990 H     1 <1>   0.0000 
 17 H        5.7310    -2.1510     0.5290 H     1 <1>   0.0000 
 18 C        0.7720    -0.3980     0.0130 C.3   1 <1>   0.0000 
 19 H        0.8350     0.1490     0.9660 H     1 <1>   0.0000 
 20 C       -0.4100     0.2050    -0.7900 C.3   1 <1>   0.1380 
 21 H       -0.3660    -0.1060    -1.8410 H     1 <1>   0.0000 
 22 H       -0.3380     1.2980    -0.7730 H     1 <1>   0.0000 
 23 C       -1.7660    -0.1650    -0.2610 C.2   1 <1>  -0.2880 
 24 H       -2.6140     0.4040    -0.6330 H     1 <1>   0.1500 
 25 C       -1.9640    -1.1410     0.6340 C.2   1 <1>  -0.2880 
 26 H       -2.9690    -1.3440     0.9950 H     1 <1>   0.1500 
 27 C       -0.8540    -1.9870     1.1720 C.3   1 <1>   0.1380 
 28 H       -1.1680    -3.0370     1.1780 H     1 <1>   0.0000 
 29 H       -0.6740    -1.7000     2.2150 H     1 <1>   0.0000 
 30 C        0.4460    -1.8630     0.3690 C.3   1 <1>   0.0000 
 31 H        1.2420    -2.3030     0.9770 H     1 <1>   0.0000 
 32 H        0.3630    -2.4620    -0.5460 H     1 <1>   0.0000 
@<TRIPOS>BOND
  1   1   2  1   
  2   2   3  1   
  3   3   4  1   
  4   3   8  1   
  5   3  18  1   
  6   4   5  1   
  7   4   6  1   
  8   4   7  1   
  9   8   9  1   
 10   8  10  1   
 11   8  11  1   
 12  11  12  1   
 13  11  13  1   
 14  11  14  1   
 15  14  15  1   
 16  14  16  1   
 17  14  17  1   
 18  18  19  1   
 19  18  20  1   
 20  18  30  1   
 21  20  21  1   
 22  20  22  1   
 23  20  23  1   
 24  23  24  1   
 25  23  25  2   
 26  25  26  1   
 27  25  27  1   
 28  27  28  1   
 29  27  29  1   
 30  27  30  1   
 31  30  31  1   
 32  30  32  1   
@<TRIPOS>SUBSTRUCTURE
  1 ****  18 GROUP 4 **** **** 0

# MOE 2022.02 (io_trps.svl 2020.11)

@<TRIPOS>MOLECULE
UNP177
28 29 1 0 0 
SMALL
USER_CHARGES


@<TRIPOS>ATOM
  1 H       10.0870    -1.6120    -0.5570 H     1 <1>   0.4000 
  2 O        9.5250    -1.0690     0.0230 O.3   1 <1>  -0.6800 
  3 C        8.1900    -1.5710    -0.0820 C.3   1 <1>   0.2800 
  4 H        8.2140    -2.6250     0.2200 H     1 <1>   0.0000 
  5 C        7.7470    -1.4650    -1.5360 C.3   1 <1>   0.0000 
  6 H        7.7430    -0.4210    -1.8680 H     1 <1>   0.0000 
  7 H        6.7490    -1.8860    -1.6890 H     1 <1>   0.0000 
  8 H        8.4460    -1.9980    -2.1890 H     1 <1>   0.0000 
  9 C        7.3020    -0.7620     0.8740 C.3   1 <1>   0.1440 
 10 H        7.2540     0.2840     0.5430 H     1 <1>   0.0000 
 11 H        7.7790    -0.7120     1.8630 H     1 <1>   0.0000 
 12 C        5.9110    -1.3260     1.0410 C.ar  1 <1>  -0.1440 
 13 C        5.7070    -2.4750     1.8240 C.ar  1 <1>  -0.1500 
 14 H        6.5520    -2.9500     2.3200 H     1 <1>   0.1500 
 15 C        4.4340    -3.0310     1.9920 C.ar  1 <1>  -0.1500 
 16 H        4.2670    -3.9150     2.5940 H     1 <1>   0.1500 
 17 C        3.3840    -2.3880     1.3430 C.ar  1 <1>   0.1400 
 18 O        2.0800    -2.7730     1.3810 O.3   1 <1>  -0.2800 
 19 C        1.3840    -1.8880     0.6240 C.2   1 <1>  -0.0100 
 20 H        0.3200    -2.0700     0.5610 H     1 <1>   0.1500 
 21 C        2.2190    -0.9270     0.0890 C.2   1 <1>  -0.1810 
 22 C        1.8350     0.2030    -0.7880 C.3   1 <1>   0.1810 
 23 H        2.0730     1.1580    -0.3090 H     1 <1>   0.0000 
 24 H        2.3740     0.1500    -1.7400 H     1 <1>   0.0000 
 25 H        0.7620     0.1920    -1.0060 H     1 <1>   0.0000 
 26 C        3.5280    -1.2510     0.5590 C.ar  1 <1>   0.0000 
 27 C        4.8180    -0.7060     0.4040 C.ar  1 <1>  -0.1500 
 28 H        4.9610     0.1840    -0.2030 H     1 <1>   0.1500 
@<TRIPOS>BOND
  1   1   2  1   
  2   2   3  1   
  3   3   4  1   
  4   3   5  1   
  5   3   9  1   
  6   5   6  1   
  7   5   7  1   
  8   5   8  1   
  9   9  10  1   
 10   9  11  1   
 11   9  12  1   
 12  12  13  ar  
 13  12  27  ar  
 14  13  14  1   
 15  13  15  ar  
 16  15  16  1   
 17  15  17  ar  
 18  17  18  1   
 19  17  26  ar  
 20  18  19  1   
 21  19  20  1   
 22  19  21  2   
 23  21  22  1   
 24  21  26  1   
 25  22  23  1   
 26  22  24  1   
 27  22  25  1   
 28  26  27  ar  
 29  27  28  1   
@<TRIPOS>SUBSTRUCTURE
  1 ****  27 GROUP 4 **** **** 0

# MOE 2022.02 (io_trps.svl 2020.11)

